gem5 Simulator System.  https://www.gem5.org
gem5 is copyrighted software; use the --copyright option for details.

gem5 version 22.0.0.2
gem5 compiled Jun 17 2023 14:31:12
gem5 started Nov 18 2023 15:51:19
gem5 executing on mnemosyne14.ecn.purdue.edu, pid 24159
command line: ./build/Garnet_standalone/gem5.fast -d ./synth_outputs/simple/2b/mixed/mclb_hops_4_6_40cpus_4xdirs_4.0GHz/coh/butter_donut_x/0_195/ configs/auto_top/auto_top_synth.py --topology EscapeVirtualNetworks --noi_routers 20 --sim-cycles 2147483647 --injectionrate 0.195 --noc_clk 4.0GHz --sys-clock 4.0GHz --ruby-clock 4.0GHz --noi_clk 2.7GHz --router_map_file configs/topologies/paper_solutions/butter_donut_x.map --flat_vn_map_file configs/topologies/vn_maps_mclb/butter_donut_x_mclb_hops_4vns.vn --flat_nr_map_file configs/topologies/nr_list_mclb/butter_donut_x_mclb.nrl --ruby --mem_or_coh coh --mem-size 320000000 --num-dirs 160 --num-cpus 40 --network garnet --mem-type SimpleMemory --routing-algorithm 2 --use_escape_vns --synth_traffic --vcs-per-vnet 6 --evn_deadlock_partition 2 --evn_n_deadlock_free 1 --evn_min_n_deadlock_free 4

info: Standard input is not a terminal, disabling listeners.
ingesting configs/topologies/vn_maps_mclb/butter_donut_x_mclb_hops_4vns.vn
cpus(40)=[<m5.objects.GarnetSyntheticTraffic.GarnetSyntheticTraffic object at 0x7f47a0368080>, <m5.objects.GarnetSyntheticTraffic.GarnetSyntheticTraffic object at 0x7f47a0368da0>, <m5.objects.GarnetSyntheticTraffic.GarnetSyntheticTraffic object at 0x7f479fee50b8>, <m5.objects.GarnetSyntheticTraffic.GarnetSyntheticTraffic object at 0x7f479fee5390>, <m5.objects.GarnetSyntheticTraffic.GarnetSyntheticTraffic object at 0x7f479fee5668>, <m5.objects.GarnetSyntheticTraffic.GarnetSyntheticTraffic object at 0x7f479fee5940>, <m5.objects.GarnetSyntheticTraffic.GarnetSyntheticTraffic object at 0x7f479fee5c18>, <m5.objects.GarnetSyntheticTraffic.GarnetSyntheticTraffic object at 0x7f479fee5ef0>, <m5.objects.GarnetSyntheticTraffic.GarnetSyntheticTraffic object at 0x7f479feee208>, <m5.objects.GarnetSyntheticTraffic.GarnetSyntheticTraffic object at 0x7f479feee4e0>, <m5.objects.GarnetSyntheticTraffic.GarnetSyntheticTraffic object at 0x7f479feee7b8>, <m5.objects.GarnetSyntheticTraffic.GarnetSyntheticTraffic object at 0x7f479feeea90>, <m5.objects.GarnetSyntheticTraffic.GarnetSyntheticTraffic object at 0x7f47a0368898>, <m5.objects.GarnetSyntheticTraffic.GarnetSyntheticTraffic object at 0x7f47a0346e10>, <m5.objects.GarnetSyntheticTraffic.GarnetSyntheticTraffic object at 0x7f47a0362748>, <m5.objects.GarnetSyntheticTraffic.GarnetSyntheticTraffic object at 0x7f47a0362da0>, <m5.objects.GarnetSyntheticTraffic.GarnetSyntheticTraffic object at 0x7f479feeecf8>, <m5.objects.GarnetSyntheticTraffic.GarnetSyntheticTraffic object at 0x7f479feeefd0>, <m5.objects.GarnetSyntheticTraffic.GarnetSyntheticTraffic object at 0x7f479fefa2e8>, <m5.objects.GarnetSyntheticTraffic.GarnetSyntheticTraffic object at 0x7f479fefa5c0>, <m5.objects.GarnetSyntheticTraffic.GarnetSyntheticTraffic object at 0x7f479fefa898>, <m5.objects.GarnetSyntheticTraffic.GarnetSyntheticTraffic object at 0x7f479fefab70>, <m5.objects.GarnetSyntheticTraffic.GarnetSyntheticTraffic object at 0x7f479fefae48>, <m5.objects.GarnetSyntheticTraffic.GarnetSyntheticTraffic object at 0x7f479ff01160>, <m5.objects.GarnetSyntheticTraffic.GarnetSyntheticTraffic object at 0x7f479ff01438>, <m5.objects.GarnetSyntheticTraffic.GarnetSyntheticTraffic object at 0x7f479ff01710>, <m5.objects.GarnetSyntheticTraffic.GarnetSyntheticTraffic object at 0x7f479ff019e8>, <m5.objects.GarnetSyntheticTraffic.GarnetSyntheticTraffic object at 0x7f479ff01cc0>, <m5.objects.GarnetSyntheticTraffic.GarnetSyntheticTraffic object at 0x7f479ff01f98>, <m5.objects.GarnetSyntheticTraffic.GarnetSyntheticTraffic object at 0x7f479ff092b0>, <m5.objects.GarnetSyntheticTraffic.GarnetSyntheticTraffic object at 0x7f479ff09588>, <m5.objects.GarnetSyntheticTraffic.GarnetSyntheticTraffic object at 0x7f479ff09860>, <m5.objects.GarnetSyntheticTraffic.GarnetSyntheticTraffic object at 0x7f479ff09b38>, <m5.objects.GarnetSyntheticTraffic.GarnetSyntheticTraffic object at 0x7f479ff09e10>, <m5.objects.GarnetSyntheticTraffic.GarnetSyntheticTraffic object at 0x7f479ff12128>, <m5.objects.GarnetSyntheticTraffic.GarnetSyntheticTraffic object at 0x7f479ff12400>, <m5.objects.GarnetSyntheticTraffic.GarnetSyntheticTraffic object at 0x7f479ff126d8>, <m5.objects.GarnetSyntheticTraffic.GarnetSyntheticTraffic object at 0x7f479ff129b0>, <m5.objects.GarnetSyntheticTraffic.GarnetSyntheticTraffic object at 0x7f479ff12c88>, <m5.objects.GarnetSyntheticTraffic.GarnetSyntheticTraffic object at 0x7f479ff12f60>])
ingesting configs/topologies/nr_list_mclb/butter_donut_x_mclb.nrl
ingesting configs/topologies/vn_maps_mclb/butter_donut_x_mclb_hops_4vns.vn
ext_cdc_required = True
