gem5 Simulator System.  https://www.gem5.org
gem5 is copyrighted software; use the --copyright option for details.

gem5 version 22.0.0.2
gem5 compiled Jun 17 2023 14:31:12
gem5 started Nov 18 2023 15:49:42
gem5 executing on mnemosyne14.ecn.purdue.edu, pid 23632
command line: ./build/Garnet_standalone/gem5.fast -d ./synth_outputs/simple/2b/mixed/mclb_hops_4_6_40cpus_4xdirs_4.0GHz/coh/lpbt_s_power/0_17/ configs/auto_top/auto_top_synth.py --topology EscapeVirtualNetworks --noi_routers 20 --sim-cycles 2147483647 --injectionrate 0.17 --noc_clk 4.0GHz --sys-clock 4.0GHz --ruby-clock 4.0GHz --noi_clk 3.6GHz --router_map_file configs/topologies/paper_solutions/lpbt_s_power.map --flat_vn_map_file configs/topologies/vn_maps_mclb/lpbt_s_power_mclb_hops_4vns.vn --flat_nr_map_file configs/topologies/nr_list_mclb/lpbt_s_power_mclb.nrl --ruby --mem_or_coh coh --mem-size 320000000 --num-dirs 160 --num-cpus 40 --network garnet --mem-type SimpleMemory --routing-algorithm 2 --use_escape_vns --synth_traffic --vcs-per-vnet 6 --evn_deadlock_partition 2 --evn_n_deadlock_free 1 --evn_min_n_deadlock_free 4

info: Standard input is not a terminal, disabling listeners.
ingesting configs/topologies/vn_maps_mclb/lpbt_s_power_mclb_hops_4vns.vn
cpus(40)=[<m5.objects.GarnetSyntheticTraffic.GarnetSyntheticTraffic object at 0x7f63944900f0>, <m5.objects.GarnetSyntheticTraffic.GarnetSyntheticTraffic object at 0x7f6394490dd8>, <m5.objects.GarnetSyntheticTraffic.GarnetSyntheticTraffic object at 0x7f639400d0f0>, <m5.objects.GarnetSyntheticTraffic.GarnetSyntheticTraffic object at 0x7f639400d3c8>, <m5.objects.GarnetSyntheticTraffic.GarnetSyntheticTraffic object at 0x7f639400d6a0>, <m5.objects.GarnetSyntheticTraffic.GarnetSyntheticTraffic object at 0x7f639400d978>, <m5.objects.GarnetSyntheticTraffic.GarnetSyntheticTraffic object at 0x7f639400dc50>, <m5.objects.GarnetSyntheticTraffic.GarnetSyntheticTraffic object at 0x7f639400df28>, <m5.objects.GarnetSyntheticTraffic.GarnetSyntheticTraffic object at 0x7f6394016240>, <m5.objects.GarnetSyntheticTraffic.GarnetSyntheticTraffic object at 0x7f6394016518>, <m5.objects.GarnetSyntheticTraffic.GarnetSyntheticTraffic object at 0x7f63940167f0>, <m5.objects.GarnetSyntheticTraffic.GarnetSyntheticTraffic object at 0x7f6394016ac8>, <m5.objects.GarnetSyntheticTraffic.GarnetSyntheticTraffic object at 0x7f63944907b8>, <m5.objects.GarnetSyntheticTraffic.GarnetSyntheticTraffic object at 0x7f6394480e48>, <m5.objects.GarnetSyntheticTraffic.GarnetSyntheticTraffic object at 0x7f639448a668>, <m5.objects.GarnetSyntheticTraffic.GarnetSyntheticTraffic object at 0x7f639448acc0>, <m5.objects.GarnetSyntheticTraffic.GarnetSyntheticTraffic object at 0x7f6394016d30>, <m5.objects.GarnetSyntheticTraffic.GarnetSyntheticTraffic object at 0x7f6394022048>, <m5.objects.GarnetSyntheticTraffic.GarnetSyntheticTraffic object at 0x7f6394022320>, <m5.objects.GarnetSyntheticTraffic.GarnetSyntheticTraffic object at 0x7f63940225f8>, <m5.objects.GarnetSyntheticTraffic.GarnetSyntheticTraffic object at 0x7f63940228d0>, <m5.objects.GarnetSyntheticTraffic.GarnetSyntheticTraffic object at 0x7f6394022ba8>, <m5.objects.GarnetSyntheticTraffic.GarnetSyntheticTraffic object at 0x7f6394022e80>, <m5.objects.GarnetSyntheticTraffic.GarnetSyntheticTraffic object at 0x7f639402a198>, <m5.objects.GarnetSyntheticTraffic.GarnetSyntheticTraffic object at 0x7f639402a470>, <m5.objects.GarnetSyntheticTraffic.GarnetSyntheticTraffic object at 0x7f639402a748>, <m5.objects.GarnetSyntheticTraffic.GarnetSyntheticTraffic object at 0x7f639402aa20>, <m5.objects.GarnetSyntheticTraffic.GarnetSyntheticTraffic object at 0x7f639402acf8>, <m5.objects.GarnetSyntheticTraffic.GarnetSyntheticTraffic object at 0x7f639402afd0>, <m5.objects.GarnetSyntheticTraffic.GarnetSyntheticTraffic object at 0x7f63940312e8>, <m5.objects.GarnetSyntheticTraffic.GarnetSyntheticTraffic object at 0x7f63940315c0>, <m5.objects.GarnetSyntheticTraffic.GarnetSyntheticTraffic object at 0x7f6394031898>, <m5.objects.GarnetSyntheticTraffic.GarnetSyntheticTraffic object at 0x7f6394031b70>, <m5.objects.GarnetSyntheticTraffic.GarnetSyntheticTraffic object at 0x7f6394031e48>, <m5.objects.GarnetSyntheticTraffic.GarnetSyntheticTraffic object at 0x7f639403a160>, <m5.objects.GarnetSyntheticTraffic.GarnetSyntheticTraffic object at 0x7f639403a438>, <m5.objects.GarnetSyntheticTraffic.GarnetSyntheticTraffic object at 0x7f639403a710>, <m5.objects.GarnetSyntheticTraffic.GarnetSyntheticTraffic object at 0x7f639403a9e8>, <m5.objects.GarnetSyntheticTraffic.GarnetSyntheticTraffic object at 0x7f639403acc0>, <m5.objects.GarnetSyntheticTraffic.GarnetSyntheticTraffic object at 0x7f639403af98>])
ingesting configs/topologies/nr_list_mclb/lpbt_s_power_mclb.nrl
ingesting configs/topologies/vn_maps_mclb/lpbt_s_power_mclb_hops_4vns.vn
ext_cdc_required = True
