gem5 Simulator System.  https://www.gem5.org
gem5 is copyrighted software; use the --copyright option for details.

gem5 version 22.0.0.2
gem5 compiled Jun 17 2023 14:31:12
gem5 started Nov 18 2023 15:50:31
gem5 executing on mnemosyne14.ecn.purdue.edu, pid 23921
command line: ./build/Garnet_standalone/gem5.fast -d ./synth_outputs/simple/2b/mixed/mclb_hops_4_6_40cpus_4xdirs_4.0GHz/coh/ns_m_latop/0_185/ configs/auto_top/auto_top_synth.py --topology EscapeVirtualNetworks --noi_routers 20 --sim-cycles 2147483647 --injectionrate 0.185 --noc_clk 4.0GHz --sys-clock 4.0GHz --ruby-clock 4.0GHz --noi_clk 3.0GHz --router_map_file configs/topologies/paper_solutions/ns_m_latop.map --flat_vn_map_file configs/topologies/vn_maps_mclb/ns_m_latop_mclb_hops_4vns.vn --flat_nr_map_file configs/topologies/nr_list_mclb/ns_m_latop_mclb.nrl --ruby --mem_or_coh coh --mem-size 320000000 --num-dirs 160 --num-cpus 40 --network garnet --mem-type SimpleMemory --routing-algorithm 2 --use_escape_vns --synth_traffic --vcs-per-vnet 6 --evn_deadlock_partition 2 --evn_n_deadlock_free 1 --evn_min_n_deadlock_free 4

info: Standard input is not a terminal, disabling listeners.
ingesting configs/topologies/vn_maps_mclb/ns_m_latop_mclb_hops_4vns.vn
cpus(40)=[<m5.objects.GarnetSyntheticTraffic.GarnetSyntheticTraffic object at 0x7fb2b1ad57b8>, <m5.objects.GarnetSyntheticTraffic.GarnetSyntheticTraffic object at 0x7fb2b1af8dd8>, <m5.objects.GarnetSyntheticTraffic.GarnetSyntheticTraffic object at 0x7fb2b16750f0>, <m5.objects.GarnetSyntheticTraffic.GarnetSyntheticTraffic object at 0x7fb2b16753c8>, <m5.objects.GarnetSyntheticTraffic.GarnetSyntheticTraffic object at 0x7fb2b16756a0>, <m5.objects.GarnetSyntheticTraffic.GarnetSyntheticTraffic object at 0x7fb2b1675978>, <m5.objects.GarnetSyntheticTraffic.GarnetSyntheticTraffic object at 0x7fb2b1675c50>, <m5.objects.GarnetSyntheticTraffic.GarnetSyntheticTraffic object at 0x7fb2b1675f28>, <m5.objects.GarnetSyntheticTraffic.GarnetSyntheticTraffic object at 0x7fb2b167e240>, <m5.objects.GarnetSyntheticTraffic.GarnetSyntheticTraffic object at 0x7fb2b167e518>, <m5.objects.GarnetSyntheticTraffic.GarnetSyntheticTraffic object at 0x7fb2b167e7f0>, <m5.objects.GarnetSyntheticTraffic.GarnetSyntheticTraffic object at 0x7fb2b167eac8>, <m5.objects.GarnetSyntheticTraffic.GarnetSyntheticTraffic object at 0x7fb2b1af8860>, <m5.objects.GarnetSyntheticTraffic.GarnetSyntheticTraffic object at 0x7fb2b1ae8eb8>, <m5.objects.GarnetSyntheticTraffic.GarnetSyntheticTraffic object at 0x7fb2b1af26d8>, <m5.objects.GarnetSyntheticTraffic.GarnetSyntheticTraffic object at 0x7fb2b1af2d30>, <m5.objects.GarnetSyntheticTraffic.GarnetSyntheticTraffic object at 0x7fb2b167ed30>, <m5.objects.GarnetSyntheticTraffic.GarnetSyntheticTraffic object at 0x7fb2b168a048>, <m5.objects.GarnetSyntheticTraffic.GarnetSyntheticTraffic object at 0x7fb2b168a320>, <m5.objects.GarnetSyntheticTraffic.GarnetSyntheticTraffic object at 0x7fb2b168a5f8>, <m5.objects.GarnetSyntheticTraffic.GarnetSyntheticTraffic object at 0x7fb2b168a8d0>, <m5.objects.GarnetSyntheticTraffic.GarnetSyntheticTraffic object at 0x7fb2b168aba8>, <m5.objects.GarnetSyntheticTraffic.GarnetSyntheticTraffic object at 0x7fb2b168ae80>, <m5.objects.GarnetSyntheticTraffic.GarnetSyntheticTraffic object at 0x7fb2b1691198>, <m5.objects.GarnetSyntheticTraffic.GarnetSyntheticTraffic object at 0x7fb2b1691470>, <m5.objects.GarnetSyntheticTraffic.GarnetSyntheticTraffic object at 0x7fb2b1691748>, <m5.objects.GarnetSyntheticTraffic.GarnetSyntheticTraffic object at 0x7fb2b1691a20>, <m5.objects.GarnetSyntheticTraffic.GarnetSyntheticTraffic object at 0x7fb2b1691cf8>, <m5.objects.GarnetSyntheticTraffic.GarnetSyntheticTraffic object at 0x7fb2b1691fd0>, <m5.objects.GarnetSyntheticTraffic.GarnetSyntheticTraffic object at 0x7fb2b16992e8>, <m5.objects.GarnetSyntheticTraffic.GarnetSyntheticTraffic object at 0x7fb2b16995c0>, <m5.objects.GarnetSyntheticTraffic.GarnetSyntheticTraffic object at 0x7fb2b1699898>, <m5.objects.GarnetSyntheticTraffic.GarnetSyntheticTraffic object at 0x7fb2b1699b70>, <m5.objects.GarnetSyntheticTraffic.GarnetSyntheticTraffic object at 0x7fb2b1699e48>, <m5.objects.GarnetSyntheticTraffic.GarnetSyntheticTraffic object at 0x7fb2b16a2160>, <m5.objects.GarnetSyntheticTraffic.GarnetSyntheticTraffic object at 0x7fb2b16a2438>, <m5.objects.GarnetSyntheticTraffic.GarnetSyntheticTraffic object at 0x7fb2b16a2710>, <m5.objects.GarnetSyntheticTraffic.GarnetSyntheticTraffic object at 0x7fb2b16a29e8>, <m5.objects.GarnetSyntheticTraffic.GarnetSyntheticTraffic object at 0x7fb2b16a2cc0>, <m5.objects.GarnetSyntheticTraffic.GarnetSyntheticTraffic object at 0x7fb2b16a2f98>])
ingesting configs/topologies/nr_list_mclb/ns_m_latop_mclb.nrl
ingesting configs/topologies/vn_maps_mclb/ns_m_latop_mclb_hops_4vns.vn
ext_cdc_required = True
