gem5 Simulator System.  https://www.gem5.org
gem5 is copyrighted software; use the --copyright option for details.

gem5 version 22.0.0.2
gem5 compiled Jun 17 2023 14:31:12
gem5 started Nov 18 2023 15:50:44
gem5 executing on mnemosyne14.ecn.purdue.edu, pid 23979
command line: ./build/Garnet_standalone/gem5.fast -d ./synth_outputs/simple/2b/mixed/mclb_hops_4_6_40cpus_4xdirs_4.0GHz/coh/butter_donut_x/0_185/ configs/auto_top/auto_top_synth.py --topology EscapeVirtualNetworks --noi_routers 20 --sim-cycles 2147483647 --injectionrate 0.185 --noc_clk 4.0GHz --sys-clock 4.0GHz --ruby-clock 4.0GHz --noi_clk 2.7GHz --router_map_file configs/topologies/paper_solutions/butter_donut_x.map --flat_vn_map_file configs/topologies/vn_maps_mclb/butter_donut_x_mclb_hops_4vns.vn --flat_nr_map_file configs/topologies/nr_list_mclb/butter_donut_x_mclb.nrl --ruby --mem_or_coh coh --mem-size 320000000 --num-dirs 160 --num-cpus 40 --network garnet --mem-type SimpleMemory --routing-algorithm 2 --use_escape_vns --synth_traffic --vcs-per-vnet 6 --evn_deadlock_partition 2 --evn_n_deadlock_free 1 --evn_min_n_deadlock_free 4

info: Standard input is not a terminal, disabling listeners.
ingesting configs/topologies/vn_maps_mclb/butter_donut_x_mclb_hops_4vns.vn
cpus(40)=[<m5.objects.GarnetSyntheticTraffic.GarnetSyntheticTraffic object at 0x7f86b31a9080>, <m5.objects.GarnetSyntheticTraffic.GarnetSyntheticTraffic object at 0x7f86b31a9da0>, <m5.objects.GarnetSyntheticTraffic.GarnetSyntheticTraffic object at 0x7f86b2d250b8>, <m5.objects.GarnetSyntheticTraffic.GarnetSyntheticTraffic object at 0x7f86b2d25358>, <m5.objects.GarnetSyntheticTraffic.GarnetSyntheticTraffic object at 0x7f86b2d25630>, <m5.objects.GarnetSyntheticTraffic.GarnetSyntheticTraffic object at 0x7f86b2d25908>, <m5.objects.GarnetSyntheticTraffic.GarnetSyntheticTraffic object at 0x7f86b2d25be0>, <m5.objects.GarnetSyntheticTraffic.GarnetSyntheticTraffic object at 0x7f86b2d25eb8>, <m5.objects.GarnetSyntheticTraffic.GarnetSyntheticTraffic object at 0x7f86b2d2f1d0>, <m5.objects.GarnetSyntheticTraffic.GarnetSyntheticTraffic object at 0x7f86b2d2f4a8>, <m5.objects.GarnetSyntheticTraffic.GarnetSyntheticTraffic object at 0x7f86b2d2f780>, <m5.objects.GarnetSyntheticTraffic.GarnetSyntheticTraffic object at 0x7f86b2d2fa58>, <m5.objects.GarnetSyntheticTraffic.GarnetSyntheticTraffic object at 0x7f86b31a9898>, <m5.objects.GarnetSyntheticTraffic.GarnetSyntheticTraffic object at 0x7f86b3198eb8>, <m5.objects.GarnetSyntheticTraffic.GarnetSyntheticTraffic object at 0x7f86b31a3748>, <m5.objects.GarnetSyntheticTraffic.GarnetSyntheticTraffic object at 0x7f86b31a3da0>, <m5.objects.GarnetSyntheticTraffic.GarnetSyntheticTraffic object at 0x7f86b2d2fcc0>, <m5.objects.GarnetSyntheticTraffic.GarnetSyntheticTraffic object at 0x7f86b2d2ff98>, <m5.objects.GarnetSyntheticTraffic.GarnetSyntheticTraffic object at 0x7f86b2d3a2b0>, <m5.objects.GarnetSyntheticTraffic.GarnetSyntheticTraffic object at 0x7f86b2d3a588>, <m5.objects.GarnetSyntheticTraffic.GarnetSyntheticTraffic object at 0x7f86b2d3a860>, <m5.objects.GarnetSyntheticTraffic.GarnetSyntheticTraffic object at 0x7f86b2d3ab38>, <m5.objects.GarnetSyntheticTraffic.GarnetSyntheticTraffic object at 0x7f86b2d3ae10>, <m5.objects.GarnetSyntheticTraffic.GarnetSyntheticTraffic object at 0x7f86b2d41128>, <m5.objects.GarnetSyntheticTraffic.GarnetSyntheticTraffic object at 0x7f86b2d41400>, <m5.objects.GarnetSyntheticTraffic.GarnetSyntheticTraffic object at 0x7f86b2d416d8>, <m5.objects.GarnetSyntheticTraffic.GarnetSyntheticTraffic object at 0x7f86b2d419b0>, <m5.objects.GarnetSyntheticTraffic.GarnetSyntheticTraffic object at 0x7f86b2d41c88>, <m5.objects.GarnetSyntheticTraffic.GarnetSyntheticTraffic object at 0x7f86b2d41f60>, <m5.objects.GarnetSyntheticTraffic.GarnetSyntheticTraffic object at 0x7f86b2d4a278>, <m5.objects.GarnetSyntheticTraffic.GarnetSyntheticTraffic object at 0x7f86b2d4a550>, <m5.objects.GarnetSyntheticTraffic.GarnetSyntheticTraffic object at 0x7f86b2d4a828>, <m5.objects.GarnetSyntheticTraffic.GarnetSyntheticTraffic object at 0x7f86b2d4ab00>, <m5.objects.GarnetSyntheticTraffic.GarnetSyntheticTraffic object at 0x7f86b2d4add8>, <m5.objects.GarnetSyntheticTraffic.GarnetSyntheticTraffic object at 0x7f86b2d520f0>, <m5.objects.GarnetSyntheticTraffic.GarnetSyntheticTraffic object at 0x7f86b2d523c8>, <m5.objects.GarnetSyntheticTraffic.GarnetSyntheticTraffic object at 0x7f86b2d526a0>, <m5.objects.GarnetSyntheticTraffic.GarnetSyntheticTraffic object at 0x7f86b2d52978>, <m5.objects.GarnetSyntheticTraffic.GarnetSyntheticTraffic object at 0x7f86b2d52c50>, <m5.objects.GarnetSyntheticTraffic.GarnetSyntheticTraffic object at 0x7f86b2d52f28>])
ingesting configs/topologies/nr_list_mclb/butter_donut_x_mclb.nrl
ingesting configs/topologies/vn_maps_mclb/butter_donut_x_mclb_hops_4vns.vn
ext_cdc_required = True
