gem5 Simulator System.  https://www.gem5.org
gem5 is copyrighted software; use the --copyright option for details.

gem5 version 22.0.0.2
gem5 compiled Jun 17 2023 14:31:12
gem5 started Nov 18 2023 15:50:26
gem5 executing on mnemosyne14.ecn.purdue.edu, pid 23901
command line: ./build/Garnet_standalone/gem5.fast -d ./synth_outputs/simple/2b/mixed/mclb_hops_4_6_40cpus_4xdirs_4.0GHz/coh/butter_donut_x/0_18/ configs/auto_top/auto_top_synth.py --topology EscapeVirtualNetworks --noi_routers 20 --sim-cycles 2147483647 --injectionrate 0.18 --noc_clk 4.0GHz --sys-clock 4.0GHz --ruby-clock 4.0GHz --noi_clk 2.7GHz --router_map_file configs/topologies/paper_solutions/butter_donut_x.map --flat_vn_map_file configs/topologies/vn_maps_mclb/butter_donut_x_mclb_hops_4vns.vn --flat_nr_map_file configs/topologies/nr_list_mclb/butter_donut_x_mclb.nrl --ruby --mem_or_coh coh --mem-size 320000000 --num-dirs 160 --num-cpus 40 --network garnet --mem-type SimpleMemory --routing-algorithm 2 --use_escape_vns --synth_traffic --vcs-per-vnet 6 --evn_deadlock_partition 2 --evn_n_deadlock_free 1 --evn_min_n_deadlock_free 4

info: Standard input is not a terminal, disabling listeners.
ingesting configs/topologies/vn_maps_mclb/butter_donut_x_mclb_hops_4vns.vn
cpus(40)=[<m5.objects.GarnetSyntheticTraffic.GarnetSyntheticTraffic object at 0x7fbf0e6c0080>, <m5.objects.GarnetSyntheticTraffic.GarnetSyntheticTraffic object at 0x7fbf0e6c0e48>, <m5.objects.GarnetSyntheticTraffic.GarnetSyntheticTraffic object at 0x7fbf0e23d160>, <m5.objects.GarnetSyntheticTraffic.GarnetSyntheticTraffic object at 0x7fbf0e23d438>, <m5.objects.GarnetSyntheticTraffic.GarnetSyntheticTraffic object at 0x7fbf0e23d710>, <m5.objects.GarnetSyntheticTraffic.GarnetSyntheticTraffic object at 0x7fbf0e23d9e8>, <m5.objects.GarnetSyntheticTraffic.GarnetSyntheticTraffic object at 0x7fbf0e23dcc0>, <m5.objects.GarnetSyntheticTraffic.GarnetSyntheticTraffic object at 0x7fbf0e23df98>, <m5.objects.GarnetSyntheticTraffic.GarnetSyntheticTraffic object at 0x7fbf0e2462b0>, <m5.objects.GarnetSyntheticTraffic.GarnetSyntheticTraffic object at 0x7fbf0e246588>, <m5.objects.GarnetSyntheticTraffic.GarnetSyntheticTraffic object at 0x7fbf0e246860>, <m5.objects.GarnetSyntheticTraffic.GarnetSyntheticTraffic object at 0x7fbf0e246b38>, <m5.objects.GarnetSyntheticTraffic.GarnetSyntheticTraffic object at 0x7fbf0e6c0898>, <m5.objects.GarnetSyntheticTraffic.GarnetSyntheticTraffic object at 0x7fbf0e69eeb8>, <m5.objects.GarnetSyntheticTraffic.GarnetSyntheticTraffic object at 0x7fbf0e6bb710>, <m5.objects.GarnetSyntheticTraffic.GarnetSyntheticTraffic object at 0x7fbf0e6bbd68>, <m5.objects.GarnetSyntheticTraffic.GarnetSyntheticTraffic object at 0x7fbf0e246da0>, <m5.objects.GarnetSyntheticTraffic.GarnetSyntheticTraffic object at 0x7fbf0e2520b8>, <m5.objects.GarnetSyntheticTraffic.GarnetSyntheticTraffic object at 0x7fbf0e252390>, <m5.objects.GarnetSyntheticTraffic.GarnetSyntheticTraffic object at 0x7fbf0e252668>, <m5.objects.GarnetSyntheticTraffic.GarnetSyntheticTraffic object at 0x7fbf0e252940>, <m5.objects.GarnetSyntheticTraffic.GarnetSyntheticTraffic object at 0x7fbf0e252c18>, <m5.objects.GarnetSyntheticTraffic.GarnetSyntheticTraffic object at 0x7fbf0e252ef0>, <m5.objects.GarnetSyntheticTraffic.GarnetSyntheticTraffic object at 0x7fbf0e259208>, <m5.objects.GarnetSyntheticTraffic.GarnetSyntheticTraffic object at 0x7fbf0e2594e0>, <m5.objects.GarnetSyntheticTraffic.GarnetSyntheticTraffic object at 0x7fbf0e2597b8>, <m5.objects.GarnetSyntheticTraffic.GarnetSyntheticTraffic object at 0x7fbf0e259a90>, <m5.objects.GarnetSyntheticTraffic.GarnetSyntheticTraffic object at 0x7fbf0e259d68>, <m5.objects.GarnetSyntheticTraffic.GarnetSyntheticTraffic object at 0x7fbf0e261080>, <m5.objects.GarnetSyntheticTraffic.GarnetSyntheticTraffic object at 0x7fbf0e261358>, <m5.objects.GarnetSyntheticTraffic.GarnetSyntheticTraffic object at 0x7fbf0e261630>, <m5.objects.GarnetSyntheticTraffic.GarnetSyntheticTraffic object at 0x7fbf0e261908>, <m5.objects.GarnetSyntheticTraffic.GarnetSyntheticTraffic object at 0x7fbf0e261be0>, <m5.objects.GarnetSyntheticTraffic.GarnetSyntheticTraffic object at 0x7fbf0e261eb8>, <m5.objects.GarnetSyntheticTraffic.GarnetSyntheticTraffic object at 0x7fbf0e26a1d0>, <m5.objects.GarnetSyntheticTraffic.GarnetSyntheticTraffic object at 0x7fbf0e26a4a8>, <m5.objects.GarnetSyntheticTraffic.GarnetSyntheticTraffic object at 0x7fbf0e26a780>, <m5.objects.GarnetSyntheticTraffic.GarnetSyntheticTraffic object at 0x7fbf0e26aa58>, <m5.objects.GarnetSyntheticTraffic.GarnetSyntheticTraffic object at 0x7fbf0e26ad30>, <m5.objects.GarnetSyntheticTraffic.GarnetSyntheticTraffic object at 0x7fbf0e271048>])
ingesting configs/topologies/nr_list_mclb/butter_donut_x_mclb.nrl
ingesting configs/topologies/vn_maps_mclb/butter_donut_x_mclb_hops_4vns.vn
ext_cdc_required = True
