
---------- Begin Simulation Statistics ----------
simSeconds                                   0.002147                       # Number of seconds simulated (Second)
simTicks                                   2147483750                       # Number of ticks simulated (Tick)
finalTick                                  2147483750                       # Number of ticks from beginning of simulation (restored from checkpoints and never reset) (Tick)
simFreq                                  1000000000000                       # The number of ticks per simulated second ((Tick/Second))
hostSeconds                                   7174.55                       # Real time elapsed on the host (Second)
hostTickRate                                   299320                       # The number of ticks simulated per host second (ticks/s) ((Tick/Second))
hostMemory                                   14324508                       # Number of bytes of host memory used (Byte)
system.clk_domain.clock                           250                       # Clock period in ticks (Tick)
system.cpu0.power_state.pwrStateResidencyTicks::UNDEFINED   2147483750                       # Cumulative time (in ticks) in various power states (Tick)
system.cpu1.power_state.pwrStateResidencyTicks::UNDEFINED   2147483750                       # Cumulative time (in ticks) in various power states (Tick)
system.cpu10.power_state.pwrStateResidencyTicks::UNDEFINED   2147483750                       # Cumulative time (in ticks) in various power states (Tick)
system.cpu11.power_state.pwrStateResidencyTicks::UNDEFINED   2147483750                       # Cumulative time (in ticks) in various power states (Tick)
system.cpu12.power_state.pwrStateResidencyTicks::UNDEFINED   2147483750                       # Cumulative time (in ticks) in various power states (Tick)
system.cpu13.power_state.pwrStateResidencyTicks::UNDEFINED   2147483750                       # Cumulative time (in ticks) in various power states (Tick)
system.cpu14.power_state.pwrStateResidencyTicks::UNDEFINED   2147483750                       # Cumulative time (in ticks) in various power states (Tick)
system.cpu15.power_state.pwrStateResidencyTicks::UNDEFINED   2147483750                       # Cumulative time (in ticks) in various power states (Tick)
system.cpu16.power_state.pwrStateResidencyTicks::UNDEFINED   2147483750                       # Cumulative time (in ticks) in various power states (Tick)
system.cpu17.power_state.pwrStateResidencyTicks::UNDEFINED   2147483750                       # Cumulative time (in ticks) in various power states (Tick)
system.cpu18.power_state.pwrStateResidencyTicks::UNDEFINED   2147483750                       # Cumulative time (in ticks) in various power states (Tick)
system.cpu19.power_state.pwrStateResidencyTicks::UNDEFINED   2147483750                       # Cumulative time (in ticks) in various power states (Tick)
system.cpu2.power_state.pwrStateResidencyTicks::UNDEFINED   2147483750                       # Cumulative time (in ticks) in various power states (Tick)
system.cpu20.power_state.pwrStateResidencyTicks::UNDEFINED   2147483750                       # Cumulative time (in ticks) in various power states (Tick)
system.cpu21.power_state.pwrStateResidencyTicks::UNDEFINED   2147483750                       # Cumulative time (in ticks) in various power states (Tick)
system.cpu22.power_state.pwrStateResidencyTicks::UNDEFINED   2147483750                       # Cumulative time (in ticks) in various power states (Tick)
system.cpu23.power_state.pwrStateResidencyTicks::UNDEFINED   2147483750                       # Cumulative time (in ticks) in various power states (Tick)
system.cpu24.power_state.pwrStateResidencyTicks::UNDEFINED   2147483750                       # Cumulative time (in ticks) in various power states (Tick)
system.cpu25.power_state.pwrStateResidencyTicks::UNDEFINED   2147483750                       # Cumulative time (in ticks) in various power states (Tick)
system.cpu26.power_state.pwrStateResidencyTicks::UNDEFINED   2147483750                       # Cumulative time (in ticks) in various power states (Tick)
system.cpu27.power_state.pwrStateResidencyTicks::UNDEFINED   2147483750                       # Cumulative time (in ticks) in various power states (Tick)
system.cpu28.power_state.pwrStateResidencyTicks::UNDEFINED   2147483750                       # Cumulative time (in ticks) in various power states (Tick)
system.cpu29.power_state.pwrStateResidencyTicks::UNDEFINED   2147483750                       # Cumulative time (in ticks) in various power states (Tick)
system.cpu3.power_state.pwrStateResidencyTicks::UNDEFINED   2147483750                       # Cumulative time (in ticks) in various power states (Tick)
system.cpu30.power_state.pwrStateResidencyTicks::UNDEFINED   2147483750                       # Cumulative time (in ticks) in various power states (Tick)
system.cpu31.power_state.pwrStateResidencyTicks::UNDEFINED   2147483750                       # Cumulative time (in ticks) in various power states (Tick)
system.cpu32.power_state.pwrStateResidencyTicks::UNDEFINED   2147483750                       # Cumulative time (in ticks) in various power states (Tick)
system.cpu33.power_state.pwrStateResidencyTicks::UNDEFINED   2147483750                       # Cumulative time (in ticks) in various power states (Tick)
system.cpu34.power_state.pwrStateResidencyTicks::UNDEFINED   2147483750                       # Cumulative time (in ticks) in various power states (Tick)
system.cpu35.power_state.pwrStateResidencyTicks::UNDEFINED   2147483750                       # Cumulative time (in ticks) in various power states (Tick)
system.cpu36.power_state.pwrStateResidencyTicks::UNDEFINED   2147483750                       # Cumulative time (in ticks) in various power states (Tick)
system.cpu37.power_state.pwrStateResidencyTicks::UNDEFINED   2147483750                       # Cumulative time (in ticks) in various power states (Tick)
system.cpu38.power_state.pwrStateResidencyTicks::UNDEFINED   2147483750                       # Cumulative time (in ticks) in various power states (Tick)
system.cpu39.power_state.pwrStateResidencyTicks::UNDEFINED   2147483750                       # Cumulative time (in ticks) in various power states (Tick)
system.cpu4.power_state.pwrStateResidencyTicks::UNDEFINED   2147483750                       # Cumulative time (in ticks) in various power states (Tick)
system.cpu5.power_state.pwrStateResidencyTicks::UNDEFINED   2147483750                       # Cumulative time (in ticks) in various power states (Tick)
system.cpu6.power_state.pwrStateResidencyTicks::UNDEFINED   2147483750                       # Cumulative time (in ticks) in various power states (Tick)
system.cpu7.power_state.pwrStateResidencyTicks::UNDEFINED   2147483750                       # Cumulative time (in ticks) in various power states (Tick)
system.cpu8.power_state.pwrStateResidencyTicks::UNDEFINED   2147483750                       # Cumulative time (in ticks) in various power states (Tick)
system.cpu9.power_state.pwrStateResidencyTicks::UNDEFINED   2147483750                       # Cumulative time (in ticks) in various power states (Tick)
system.mem_ctrls0.power_state.pwrStateResidencyTicks::UNDEFINED   2147483750                       # Cumulative time (in ticks) in various power states (Tick)
system.mem_ctrls1.power_state.pwrStateResidencyTicks::UNDEFINED   2147483750                       # Cumulative time (in ticks) in various power states (Tick)
system.mem_ctrls10.power_state.pwrStateResidencyTicks::UNDEFINED   2147483750                       # Cumulative time (in ticks) in various power states (Tick)
system.mem_ctrls100.power_state.pwrStateResidencyTicks::UNDEFINED   2147483750                       # Cumulative time (in ticks) in various power states (Tick)
system.mem_ctrls101.power_state.pwrStateResidencyTicks::UNDEFINED   2147483750                       # Cumulative time (in ticks) in various power states (Tick)
system.mem_ctrls102.power_state.pwrStateResidencyTicks::UNDEFINED   2147483750                       # Cumulative time (in ticks) in various power states (Tick)
system.mem_ctrls103.power_state.pwrStateResidencyTicks::UNDEFINED   2147483750                       # Cumulative time (in ticks) in various power states (Tick)
system.mem_ctrls104.power_state.pwrStateResidencyTicks::UNDEFINED   2147483750                       # Cumulative time (in ticks) in various power states (Tick)
system.mem_ctrls105.power_state.pwrStateResidencyTicks::UNDEFINED   2147483750                       # Cumulative time (in ticks) in various power states (Tick)
system.mem_ctrls106.power_state.pwrStateResidencyTicks::UNDEFINED   2147483750                       # Cumulative time (in ticks) in various power states (Tick)
system.mem_ctrls107.power_state.pwrStateResidencyTicks::UNDEFINED   2147483750                       # Cumulative time (in ticks) in various power states (Tick)
system.mem_ctrls108.power_state.pwrStateResidencyTicks::UNDEFINED   2147483750                       # Cumulative time (in ticks) in various power states (Tick)
system.mem_ctrls109.power_state.pwrStateResidencyTicks::UNDEFINED   2147483750                       # Cumulative time (in ticks) in various power states (Tick)
system.mem_ctrls11.power_state.pwrStateResidencyTicks::UNDEFINED   2147483750                       # Cumulative time (in ticks) in various power states (Tick)
system.mem_ctrls110.power_state.pwrStateResidencyTicks::UNDEFINED   2147483750                       # Cumulative time (in ticks) in various power states (Tick)
system.mem_ctrls111.power_state.pwrStateResidencyTicks::UNDEFINED   2147483750                       # Cumulative time (in ticks) in various power states (Tick)
system.mem_ctrls112.power_state.pwrStateResidencyTicks::UNDEFINED   2147483750                       # Cumulative time (in ticks) in various power states (Tick)
system.mem_ctrls113.power_state.pwrStateResidencyTicks::UNDEFINED   2147483750                       # Cumulative time (in ticks) in various power states (Tick)
system.mem_ctrls114.power_state.pwrStateResidencyTicks::UNDEFINED   2147483750                       # Cumulative time (in ticks) in various power states (Tick)
system.mem_ctrls115.power_state.pwrStateResidencyTicks::UNDEFINED   2147483750                       # Cumulative time (in ticks) in various power states (Tick)
system.mem_ctrls116.power_state.pwrStateResidencyTicks::UNDEFINED   2147483750                       # Cumulative time (in ticks) in various power states (Tick)
system.mem_ctrls117.power_state.pwrStateResidencyTicks::UNDEFINED   2147483750                       # Cumulative time (in ticks) in various power states (Tick)
system.mem_ctrls118.power_state.pwrStateResidencyTicks::UNDEFINED   2147483750                       # Cumulative time (in ticks) in various power states (Tick)
system.mem_ctrls119.power_state.pwrStateResidencyTicks::UNDEFINED   2147483750                       # Cumulative time (in ticks) in various power states (Tick)
system.mem_ctrls12.power_state.pwrStateResidencyTicks::UNDEFINED   2147483750                       # Cumulative time (in ticks) in various power states (Tick)
system.mem_ctrls120.power_state.pwrStateResidencyTicks::UNDEFINED   2147483750                       # Cumulative time (in ticks) in various power states (Tick)
system.mem_ctrls121.power_state.pwrStateResidencyTicks::UNDEFINED   2147483750                       # Cumulative time (in ticks) in various power states (Tick)
system.mem_ctrls122.power_state.pwrStateResidencyTicks::UNDEFINED   2147483750                       # Cumulative time (in ticks) in various power states (Tick)
system.mem_ctrls123.power_state.pwrStateResidencyTicks::UNDEFINED   2147483750                       # Cumulative time (in ticks) in various power states (Tick)
system.mem_ctrls124.power_state.pwrStateResidencyTicks::UNDEFINED   2147483750                       # Cumulative time (in ticks) in various power states (Tick)
system.mem_ctrls125.power_state.pwrStateResidencyTicks::UNDEFINED   2147483750                       # Cumulative time (in ticks) in various power states (Tick)
system.mem_ctrls126.power_state.pwrStateResidencyTicks::UNDEFINED   2147483750                       # Cumulative time (in ticks) in various power states (Tick)
system.mem_ctrls127.power_state.pwrStateResidencyTicks::UNDEFINED   2147483750                       # Cumulative time (in ticks) in various power states (Tick)
system.mem_ctrls128.power_state.pwrStateResidencyTicks::UNDEFINED   2147483750                       # Cumulative time (in ticks) in various power states (Tick)
system.mem_ctrls129.power_state.pwrStateResidencyTicks::UNDEFINED   2147483750                       # Cumulative time (in ticks) in various power states (Tick)
system.mem_ctrls13.power_state.pwrStateResidencyTicks::UNDEFINED   2147483750                       # Cumulative time (in ticks) in various power states (Tick)
system.mem_ctrls130.power_state.pwrStateResidencyTicks::UNDEFINED   2147483750                       # Cumulative time (in ticks) in various power states (Tick)
system.mem_ctrls131.power_state.pwrStateResidencyTicks::UNDEFINED   2147483750                       # Cumulative time (in ticks) in various power states (Tick)
system.mem_ctrls132.power_state.pwrStateResidencyTicks::UNDEFINED   2147483750                       # Cumulative time (in ticks) in various power states (Tick)
system.mem_ctrls133.power_state.pwrStateResidencyTicks::UNDEFINED   2147483750                       # Cumulative time (in ticks) in various power states (Tick)
system.mem_ctrls134.power_state.pwrStateResidencyTicks::UNDEFINED   2147483750                       # Cumulative time (in ticks) in various power states (Tick)
system.mem_ctrls135.power_state.pwrStateResidencyTicks::UNDEFINED   2147483750                       # Cumulative time (in ticks) in various power states (Tick)
system.mem_ctrls136.power_state.pwrStateResidencyTicks::UNDEFINED   2147483750                       # Cumulative time (in ticks) in various power states (Tick)
system.mem_ctrls137.power_state.pwrStateResidencyTicks::UNDEFINED   2147483750                       # Cumulative time (in ticks) in various power states (Tick)
system.mem_ctrls138.power_state.pwrStateResidencyTicks::UNDEFINED   2147483750                       # Cumulative time (in ticks) in various power states (Tick)
system.mem_ctrls139.power_state.pwrStateResidencyTicks::UNDEFINED   2147483750                       # Cumulative time (in ticks) in various power states (Tick)
system.mem_ctrls14.power_state.pwrStateResidencyTicks::UNDEFINED   2147483750                       # Cumulative time (in ticks) in various power states (Tick)
system.mem_ctrls140.power_state.pwrStateResidencyTicks::UNDEFINED   2147483750                       # Cumulative time (in ticks) in various power states (Tick)
system.mem_ctrls141.power_state.pwrStateResidencyTicks::UNDEFINED   2147483750                       # Cumulative time (in ticks) in various power states (Tick)
system.mem_ctrls142.power_state.pwrStateResidencyTicks::UNDEFINED   2147483750                       # Cumulative time (in ticks) in various power states (Tick)
system.mem_ctrls143.power_state.pwrStateResidencyTicks::UNDEFINED   2147483750                       # Cumulative time (in ticks) in various power states (Tick)
system.mem_ctrls144.power_state.pwrStateResidencyTicks::UNDEFINED   2147483750                       # Cumulative time (in ticks) in various power states (Tick)
system.mem_ctrls145.power_state.pwrStateResidencyTicks::UNDEFINED   2147483750                       # Cumulative time (in ticks) in various power states (Tick)
system.mem_ctrls146.power_state.pwrStateResidencyTicks::UNDEFINED   2147483750                       # Cumulative time (in ticks) in various power states (Tick)
system.mem_ctrls147.power_state.pwrStateResidencyTicks::UNDEFINED   2147483750                       # Cumulative time (in ticks) in various power states (Tick)
system.mem_ctrls148.power_state.pwrStateResidencyTicks::UNDEFINED   2147483750                       # Cumulative time (in ticks) in various power states (Tick)
system.mem_ctrls149.power_state.pwrStateResidencyTicks::UNDEFINED   2147483750                       # Cumulative time (in ticks) in various power states (Tick)
system.mem_ctrls15.power_state.pwrStateResidencyTicks::UNDEFINED   2147483750                       # Cumulative time (in ticks) in various power states (Tick)
system.mem_ctrls150.power_state.pwrStateResidencyTicks::UNDEFINED   2147483750                       # Cumulative time (in ticks) in various power states (Tick)
system.mem_ctrls151.power_state.pwrStateResidencyTicks::UNDEFINED   2147483750                       # Cumulative time (in ticks) in various power states (Tick)
system.mem_ctrls152.power_state.pwrStateResidencyTicks::UNDEFINED   2147483750                       # Cumulative time (in ticks) in various power states (Tick)
system.mem_ctrls153.power_state.pwrStateResidencyTicks::UNDEFINED   2147483750                       # Cumulative time (in ticks) in various power states (Tick)
system.mem_ctrls154.power_state.pwrStateResidencyTicks::UNDEFINED   2147483750                       # Cumulative time (in ticks) in various power states (Tick)
system.mem_ctrls155.power_state.pwrStateResidencyTicks::UNDEFINED   2147483750                       # Cumulative time (in ticks) in various power states (Tick)
system.mem_ctrls156.power_state.pwrStateResidencyTicks::UNDEFINED   2147483750                       # Cumulative time (in ticks) in various power states (Tick)
system.mem_ctrls157.power_state.pwrStateResidencyTicks::UNDEFINED   2147483750                       # Cumulative time (in ticks) in various power states (Tick)
system.mem_ctrls158.power_state.pwrStateResidencyTicks::UNDEFINED   2147483750                       # Cumulative time (in ticks) in various power states (Tick)
system.mem_ctrls159.power_state.pwrStateResidencyTicks::UNDEFINED   2147483750                       # Cumulative time (in ticks) in various power states (Tick)
system.mem_ctrls16.power_state.pwrStateResidencyTicks::UNDEFINED   2147483750                       # Cumulative time (in ticks) in various power states (Tick)
system.mem_ctrls17.power_state.pwrStateResidencyTicks::UNDEFINED   2147483750                       # Cumulative time (in ticks) in various power states (Tick)
system.mem_ctrls18.power_state.pwrStateResidencyTicks::UNDEFINED   2147483750                       # Cumulative time (in ticks) in various power states (Tick)
system.mem_ctrls19.power_state.pwrStateResidencyTicks::UNDEFINED   2147483750                       # Cumulative time (in ticks) in various power states (Tick)
system.mem_ctrls2.power_state.pwrStateResidencyTicks::UNDEFINED   2147483750                       # Cumulative time (in ticks) in various power states (Tick)
system.mem_ctrls20.power_state.pwrStateResidencyTicks::UNDEFINED   2147483750                       # Cumulative time (in ticks) in various power states (Tick)
system.mem_ctrls21.power_state.pwrStateResidencyTicks::UNDEFINED   2147483750                       # Cumulative time (in ticks) in various power states (Tick)
system.mem_ctrls22.power_state.pwrStateResidencyTicks::UNDEFINED   2147483750                       # Cumulative time (in ticks) in various power states (Tick)
system.mem_ctrls23.power_state.pwrStateResidencyTicks::UNDEFINED   2147483750                       # Cumulative time (in ticks) in various power states (Tick)
system.mem_ctrls24.power_state.pwrStateResidencyTicks::UNDEFINED   2147483750                       # Cumulative time (in ticks) in various power states (Tick)
system.mem_ctrls25.power_state.pwrStateResidencyTicks::UNDEFINED   2147483750                       # Cumulative time (in ticks) in various power states (Tick)
system.mem_ctrls26.power_state.pwrStateResidencyTicks::UNDEFINED   2147483750                       # Cumulative time (in ticks) in various power states (Tick)
system.mem_ctrls27.power_state.pwrStateResidencyTicks::UNDEFINED   2147483750                       # Cumulative time (in ticks) in various power states (Tick)
system.mem_ctrls28.power_state.pwrStateResidencyTicks::UNDEFINED   2147483750                       # Cumulative time (in ticks) in various power states (Tick)
system.mem_ctrls29.power_state.pwrStateResidencyTicks::UNDEFINED   2147483750                       # Cumulative time (in ticks) in various power states (Tick)
system.mem_ctrls3.power_state.pwrStateResidencyTicks::UNDEFINED   2147483750                       # Cumulative time (in ticks) in various power states (Tick)
system.mem_ctrls30.power_state.pwrStateResidencyTicks::UNDEFINED   2147483750                       # Cumulative time (in ticks) in various power states (Tick)
system.mem_ctrls31.power_state.pwrStateResidencyTicks::UNDEFINED   2147483750                       # Cumulative time (in ticks) in various power states (Tick)
system.mem_ctrls32.power_state.pwrStateResidencyTicks::UNDEFINED   2147483750                       # Cumulative time (in ticks) in various power states (Tick)
system.mem_ctrls33.power_state.pwrStateResidencyTicks::UNDEFINED   2147483750                       # Cumulative time (in ticks) in various power states (Tick)
system.mem_ctrls34.power_state.pwrStateResidencyTicks::UNDEFINED   2147483750                       # Cumulative time (in ticks) in various power states (Tick)
system.mem_ctrls35.power_state.pwrStateResidencyTicks::UNDEFINED   2147483750                       # Cumulative time (in ticks) in various power states (Tick)
system.mem_ctrls36.power_state.pwrStateResidencyTicks::UNDEFINED   2147483750                       # Cumulative time (in ticks) in various power states (Tick)
system.mem_ctrls37.power_state.pwrStateResidencyTicks::UNDEFINED   2147483750                       # Cumulative time (in ticks) in various power states (Tick)
system.mem_ctrls38.power_state.pwrStateResidencyTicks::UNDEFINED   2147483750                       # Cumulative time (in ticks) in various power states (Tick)
system.mem_ctrls39.power_state.pwrStateResidencyTicks::UNDEFINED   2147483750                       # Cumulative time (in ticks) in various power states (Tick)
system.mem_ctrls4.power_state.pwrStateResidencyTicks::UNDEFINED   2147483750                       # Cumulative time (in ticks) in various power states (Tick)
system.mem_ctrls40.power_state.pwrStateResidencyTicks::UNDEFINED   2147483750                       # Cumulative time (in ticks) in various power states (Tick)
system.mem_ctrls41.power_state.pwrStateResidencyTicks::UNDEFINED   2147483750                       # Cumulative time (in ticks) in various power states (Tick)
system.mem_ctrls42.power_state.pwrStateResidencyTicks::UNDEFINED   2147483750                       # Cumulative time (in ticks) in various power states (Tick)
system.mem_ctrls43.power_state.pwrStateResidencyTicks::UNDEFINED   2147483750                       # Cumulative time (in ticks) in various power states (Tick)
system.mem_ctrls44.power_state.pwrStateResidencyTicks::UNDEFINED   2147483750                       # Cumulative time (in ticks) in various power states (Tick)
system.mem_ctrls45.power_state.pwrStateResidencyTicks::UNDEFINED   2147483750                       # Cumulative time (in ticks) in various power states (Tick)
system.mem_ctrls46.power_state.pwrStateResidencyTicks::UNDEFINED   2147483750                       # Cumulative time (in ticks) in various power states (Tick)
system.mem_ctrls47.power_state.pwrStateResidencyTicks::UNDEFINED   2147483750                       # Cumulative time (in ticks) in various power states (Tick)
system.mem_ctrls48.power_state.pwrStateResidencyTicks::UNDEFINED   2147483750                       # Cumulative time (in ticks) in various power states (Tick)
system.mem_ctrls49.power_state.pwrStateResidencyTicks::UNDEFINED   2147483750                       # Cumulative time (in ticks) in various power states (Tick)
system.mem_ctrls5.power_state.pwrStateResidencyTicks::UNDEFINED   2147483750                       # Cumulative time (in ticks) in various power states (Tick)
system.mem_ctrls50.power_state.pwrStateResidencyTicks::UNDEFINED   2147483750                       # Cumulative time (in ticks) in various power states (Tick)
system.mem_ctrls51.power_state.pwrStateResidencyTicks::UNDEFINED   2147483750                       # Cumulative time (in ticks) in various power states (Tick)
system.mem_ctrls52.power_state.pwrStateResidencyTicks::UNDEFINED   2147483750                       # Cumulative time (in ticks) in various power states (Tick)
system.mem_ctrls53.power_state.pwrStateResidencyTicks::UNDEFINED   2147483750                       # Cumulative time (in ticks) in various power states (Tick)
system.mem_ctrls54.power_state.pwrStateResidencyTicks::UNDEFINED   2147483750                       # Cumulative time (in ticks) in various power states (Tick)
system.mem_ctrls55.power_state.pwrStateResidencyTicks::UNDEFINED   2147483750                       # Cumulative time (in ticks) in various power states (Tick)
system.mem_ctrls56.power_state.pwrStateResidencyTicks::UNDEFINED   2147483750                       # Cumulative time (in ticks) in various power states (Tick)
system.mem_ctrls57.power_state.pwrStateResidencyTicks::UNDEFINED   2147483750                       # Cumulative time (in ticks) in various power states (Tick)
system.mem_ctrls58.power_state.pwrStateResidencyTicks::UNDEFINED   2147483750                       # Cumulative time (in ticks) in various power states (Tick)
system.mem_ctrls59.power_state.pwrStateResidencyTicks::UNDEFINED   2147483750                       # Cumulative time (in ticks) in various power states (Tick)
system.mem_ctrls6.power_state.pwrStateResidencyTicks::UNDEFINED   2147483750                       # Cumulative time (in ticks) in various power states (Tick)
system.mem_ctrls60.power_state.pwrStateResidencyTicks::UNDEFINED   2147483750                       # Cumulative time (in ticks) in various power states (Tick)
system.mem_ctrls61.power_state.pwrStateResidencyTicks::UNDEFINED   2147483750                       # Cumulative time (in ticks) in various power states (Tick)
system.mem_ctrls62.power_state.pwrStateResidencyTicks::UNDEFINED   2147483750                       # Cumulative time (in ticks) in various power states (Tick)
system.mem_ctrls63.power_state.pwrStateResidencyTicks::UNDEFINED   2147483750                       # Cumulative time (in ticks) in various power states (Tick)
system.mem_ctrls64.power_state.pwrStateResidencyTicks::UNDEFINED   2147483750                       # Cumulative time (in ticks) in various power states (Tick)
system.mem_ctrls65.power_state.pwrStateResidencyTicks::UNDEFINED   2147483750                       # Cumulative time (in ticks) in various power states (Tick)
system.mem_ctrls66.power_state.pwrStateResidencyTicks::UNDEFINED   2147483750                       # Cumulative time (in ticks) in various power states (Tick)
system.mem_ctrls67.power_state.pwrStateResidencyTicks::UNDEFINED   2147483750                       # Cumulative time (in ticks) in various power states (Tick)
system.mem_ctrls68.power_state.pwrStateResidencyTicks::UNDEFINED   2147483750                       # Cumulative time (in ticks) in various power states (Tick)
system.mem_ctrls69.power_state.pwrStateResidencyTicks::UNDEFINED   2147483750                       # Cumulative time (in ticks) in various power states (Tick)
system.mem_ctrls7.power_state.pwrStateResidencyTicks::UNDEFINED   2147483750                       # Cumulative time (in ticks) in various power states (Tick)
system.mem_ctrls70.power_state.pwrStateResidencyTicks::UNDEFINED   2147483750                       # Cumulative time (in ticks) in various power states (Tick)
system.mem_ctrls71.power_state.pwrStateResidencyTicks::UNDEFINED   2147483750                       # Cumulative time (in ticks) in various power states (Tick)
system.mem_ctrls72.power_state.pwrStateResidencyTicks::UNDEFINED   2147483750                       # Cumulative time (in ticks) in various power states (Tick)
system.mem_ctrls73.power_state.pwrStateResidencyTicks::UNDEFINED   2147483750                       # Cumulative time (in ticks) in various power states (Tick)
system.mem_ctrls74.power_state.pwrStateResidencyTicks::UNDEFINED   2147483750                       # Cumulative time (in ticks) in various power states (Tick)
system.mem_ctrls75.power_state.pwrStateResidencyTicks::UNDEFINED   2147483750                       # Cumulative time (in ticks) in various power states (Tick)
system.mem_ctrls76.power_state.pwrStateResidencyTicks::UNDEFINED   2147483750                       # Cumulative time (in ticks) in various power states (Tick)
system.mem_ctrls77.power_state.pwrStateResidencyTicks::UNDEFINED   2147483750                       # Cumulative time (in ticks) in various power states (Tick)
system.mem_ctrls78.power_state.pwrStateResidencyTicks::UNDEFINED   2147483750                       # Cumulative time (in ticks) in various power states (Tick)
system.mem_ctrls79.power_state.pwrStateResidencyTicks::UNDEFINED   2147483750                       # Cumulative time (in ticks) in various power states (Tick)
system.mem_ctrls8.power_state.pwrStateResidencyTicks::UNDEFINED   2147483750                       # Cumulative time (in ticks) in various power states (Tick)
system.mem_ctrls80.power_state.pwrStateResidencyTicks::UNDEFINED   2147483750                       # Cumulative time (in ticks) in various power states (Tick)
system.mem_ctrls81.power_state.pwrStateResidencyTicks::UNDEFINED   2147483750                       # Cumulative time (in ticks) in various power states (Tick)
system.mem_ctrls82.power_state.pwrStateResidencyTicks::UNDEFINED   2147483750                       # Cumulative time (in ticks) in various power states (Tick)
system.mem_ctrls83.power_state.pwrStateResidencyTicks::UNDEFINED   2147483750                       # Cumulative time (in ticks) in various power states (Tick)
system.mem_ctrls84.power_state.pwrStateResidencyTicks::UNDEFINED   2147483750                       # Cumulative time (in ticks) in various power states (Tick)
system.mem_ctrls85.power_state.pwrStateResidencyTicks::UNDEFINED   2147483750                       # Cumulative time (in ticks) in various power states (Tick)
system.mem_ctrls86.power_state.pwrStateResidencyTicks::UNDEFINED   2147483750                       # Cumulative time (in ticks) in various power states (Tick)
system.mem_ctrls87.power_state.pwrStateResidencyTicks::UNDEFINED   2147483750                       # Cumulative time (in ticks) in various power states (Tick)
system.mem_ctrls88.power_state.pwrStateResidencyTicks::UNDEFINED   2147483750                       # Cumulative time (in ticks) in various power states (Tick)
system.mem_ctrls89.power_state.pwrStateResidencyTicks::UNDEFINED   2147483750                       # Cumulative time (in ticks) in various power states (Tick)
system.mem_ctrls9.power_state.pwrStateResidencyTicks::UNDEFINED   2147483750                       # Cumulative time (in ticks) in various power states (Tick)
system.mem_ctrls90.power_state.pwrStateResidencyTicks::UNDEFINED   2147483750                       # Cumulative time (in ticks) in various power states (Tick)
system.mem_ctrls91.power_state.pwrStateResidencyTicks::UNDEFINED   2147483750                       # Cumulative time (in ticks) in various power states (Tick)
system.mem_ctrls92.power_state.pwrStateResidencyTicks::UNDEFINED   2147483750                       # Cumulative time (in ticks) in various power states (Tick)
system.mem_ctrls93.power_state.pwrStateResidencyTicks::UNDEFINED   2147483750                       # Cumulative time (in ticks) in various power states (Tick)
system.mem_ctrls94.power_state.pwrStateResidencyTicks::UNDEFINED   2147483750                       # Cumulative time (in ticks) in various power states (Tick)
system.mem_ctrls95.power_state.pwrStateResidencyTicks::UNDEFINED   2147483750                       # Cumulative time (in ticks) in various power states (Tick)
system.mem_ctrls96.power_state.pwrStateResidencyTicks::UNDEFINED   2147483750                       # Cumulative time (in ticks) in various power states (Tick)
system.mem_ctrls97.power_state.pwrStateResidencyTicks::UNDEFINED   2147483750                       # Cumulative time (in ticks) in various power states (Tick)
system.mem_ctrls98.power_state.pwrStateResidencyTicks::UNDEFINED   2147483750                       # Cumulative time (in ticks) in various power states (Tick)
system.mem_ctrls99.power_state.pwrStateResidencyTicks::UNDEFINED   2147483750                       # Cumulative time (in ticks) in various power states (Tick)
system.ruby.m_outstandReqHistSeqr::bucket_size            1                       (Unspecified)
system.ruby.m_outstandReqHistSeqr::max_bucket            9                       (Unspecified)
system.ruby.m_outstandReqHistSeqr::samples     46339027                       (Unspecified)
system.ruby.m_outstandReqHistSeqr::mean             1                       (Unspecified)
system.ruby.m_outstandReqHistSeqr::gmean            1                       (Unspecified)
system.ruby.m_outstandReqHistSeqr        |           0      0.00%      0.00% |    46339027    100.00%    100.00% |           0      0.00%    100.00% |           0      0.00%    100.00% |           0      0.00%    100.00% |           0      0.00%    100.00% |           0      0.00%    100.00% |           0      0.00%    100.00% |           0      0.00%    100.00% |           0      0.00%    100.00% (Unspecified)
system.ruby.m_outstandReqHistSeqr::total     46339027                       (Unspecified)
system.ruby.m_latencyHistSeqr::bucket_size            1                       (Unspecified)
system.ruby.m_latencyHistSeqr::max_bucket            9                       (Unspecified)
system.ruby.m_latencyHistSeqr::samples       46339025                       (Unspecified)
system.ruby.m_latencyHistSeqr::mean                 1                       (Unspecified)
system.ruby.m_latencyHistSeqr::gmean                1                       (Unspecified)
system.ruby.m_latencyHistSeqr            |           0      0.00%      0.00% |    46339025    100.00%    100.00% |           0      0.00%    100.00% |           0      0.00%    100.00% |           0      0.00%    100.00% |           0      0.00%    100.00% |           0      0.00%    100.00% |           0      0.00%    100.00% |           0      0.00%    100.00% |           0      0.00%    100.00% (Unspecified)
system.ruby.m_latencyHistSeqr::total         46339025                       (Unspecified)
system.ruby.m_hitLatencyHistSeqr::bucket_size            1                       (Unspecified)
system.ruby.m_hitLatencyHistSeqr::max_bucket            9                       (Unspecified)
system.ruby.m_hitLatencyHistSeqr::samples     46339025                       (Unspecified)
system.ruby.m_hitLatencyHistSeqr::mean              1                       (Unspecified)
system.ruby.m_hitLatencyHistSeqr::gmean             1                       (Unspecified)
system.ruby.m_hitLatencyHistSeqr         |           0      0.00%      0.00% |    46339025    100.00%    100.00% |           0      0.00%    100.00% |           0      0.00%    100.00% |           0      0.00%    100.00% |           0      0.00%    100.00% |           0      0.00%    100.00% |           0      0.00%    100.00% |           0      0.00%    100.00% |           0      0.00%    100.00% (Unspecified)
system.ruby.m_hitLatencyHistSeqr::total      46339025                       (Unspecified)
system.ruby.Directory_Controller.Receive_Request |      144035      0.62%      0.62% |      144711      0.62%      1.25% |      144825      0.63%      1.87% |      144876      0.63%      2.50% |      145368      0.63%      3.12% |      144781      0.62%      3.75% |      144820      0.63%      4.37% |      144894      0.63%      5.00% |      145329      0.63%      5.63% |      144681      0.62%      6.25% |      144694      0.62%      6.88% |      144562      0.62%      7.50% |      145072      0.63%      8.13% |      144657      0.62%      8.75% |      144478      0.62%      9.37% |      144280      0.62%     10.00% |      144777      0.62%     10.62% |      145049      0.63%     11.25% |      144846      0.63%     11.87% |      144918      0.63%     12.50% |      145403      0.63%     13.13% |      144980      0.63%     13.75% |      144896      0.63%     14.38% |      144206      0.62%     15.00% |      144494      0.62%     15.62% |      145325      0.63%     16.25% |      144364      0.62%     16.87% |      145035      0.63%     17.50% |      144990      0.63%     18.12% |      145642      0.63%     18.75% |      144713      0.62%     19.38% |      145133      0.63%     20.00% |      145518      0.63%     20.63% |      144812      0.62%     21.26% |      144869      0.63%     21.88% |      145027      0.63%     22.51% |      145070      0.63%     23.13% |      144431      0.62%     23.76% |      145171      0.63%     24.38% |      145124      0.63%     25.01% |      144715      0.62%     25.63% |      144848      0.63%     26.26% |      144173      0.62%     26.88% |      144791      0.62%     27.51% |      144249      0.62%     28.13% |      145140      0.63%     28.76% |      145025      0.63%     29.38% |      144691      0.62%     30.01% |      144538      0.62%     30.63% |      145095      0.63%     31.26% |      144843      0.63%     31.88% |      144910      0.63%     32.51% |      144837      0.63%     33.13% |      144742      0.62%     33.76% |      144265      0.62%     34.38% |      145076      0.63%     35.01% |      144373      0.62%     35.63% |      144690      0.62%     36.25% |      145040      0.63%     36.88% |      145149      0.63%     37.51% |      144977      0.63%     38.13% |      144167      0.62%     38.75% |      145118      0.63%     39.38% |      144965      0.63%     40.01% |      144524      0.62%     40.63% |      144927      0.63%     41.25% |      145095      0.63%     41.88% |      144820      0.63%     42.51% |      144480      0.62%     43.13% |      144563      0.62%     43.75% |      144439      0.62%     44.38% |      145258      0.63%     45.00% |      144533      0.62%     45.63% |      144882      0.63%     46.25% |      144632      0.62%     46.88% |      145587      0.63%     47.51% |      145167      0.63%     48.13% |      144208      0.62%     48.75% |      144401      0.62%     49.38% |      144473      0.62%     50.00% |      144607      0.62%     50.63% |      144106      0.62%     51.25% |      144387      0.62%     51.87% |      145019      0.63%     52.50% |      144296      0.62%     53.12% |      145243      0.63%     53.75% |      144665      0.62%     54.37% |      145166      0.63%     55.00% |      145405      0.63%     55.62% |      144157      0.62%     56.25% |      145204      0.63%     56.87% |      145338      0.63%     57.50% |      144552      0.62%     58.12% |      145389      0.63%     58.75% |      145557      0.63%     59.38% |      144784      0.62%     60.01% |      145119      0.63%     60.63% |      144785      0.62%     61.26% |      144816      0.63%     61.88% |      144937      0.63%     62.51% |      145492      0.63%     63.13% |      144395      0.62%     63.76% |      144814      0.63%     64.38% |      144518      0.62%     65.01% |      144483      0.62%     65.63% |      144673      0.62%     66.25% |      145137      0.63%     66.88% |      144568      0.62%     67.51% |      144746      0.62%     68.13% |      144452      0.62%     68.75% |      144668      0.62%     69.38% |      145225      0.63%     70.00% |      145346      0.63%     70.63% |      144642      0.62%     71.26% |      145136      0.63%     71.88% |      144802      0.62%     72.51% |      144959      0.63%     73.13% |      144255      0.62%     73.76% |      145283      0.63%     74.38% |      144299      0.62%     75.01% |      144126      0.62%     75.63% |      145037      0.63%     76.25% |      144504      0.62%     76.88% |      145107      0.63%     77.50% |      145163      0.63%     78.13% |      144662      0.62%     78.75% |      144414      0.62%     79.38% |      144879      0.63%     80.00% |      144881      0.63%     80.63% |      144757      0.62%     81.25% |      144313      0.62%     81.88% |      145009      0.63%     82.50% |      144715      0.62%     83.13% |      145339      0.63%     83.75% |      145341      0.63%     84.38% |      144947      0.63%     85.01% |      144176      0.62%     85.63% |      144573      0.62%     86.25% |      144686      0.62%     86.88% |      144927      0.63%     87.50% |      144558      0.62%     88.13% |      144722      0.62%     88.75% |      144810      0.62%     89.38% |      144846      0.63%     90.00% |      144237      0.62%     90.62% |      144705      0.62%     91.25% |      144943      0.63%     91.87% |      144412      0.62%     92.50% |      144660      0.62%     93.12% |      144806      0.62%     93.75% |      144700      0.62%     94.37% |      144726      0.62%     95.00% |      144714      0.62%     95.62% |      144875      0.63%     96.25% |      145075      0.63%     96.87% |      145273      0.63%     97.50% |      145154      0.63%     98.12% |      144684      0.62%     98.75% |      145122      0.63%     99.38% |      144667      0.62%    100.00% (Unspecified)
system.ruby.Directory_Controller.Receive_Request::total     23169932                       (Unspecified)
system.ruby.Directory_Controller.Receive_Response |       69503      0.62%      0.62% |       69548      0.62%      1.25% |       69746      0.63%      1.88% |       69138      0.62%      2.50% |       69161      0.62%      3.12% |       69503      0.62%      3.74% |       69410      0.62%      4.36% |       69545      0.62%      4.99% |       69356      0.62%      5.61% |       69735      0.63%      6.24% |       69731      0.63%      6.86% |       69939      0.63%      7.49% |       69487      0.62%      8.12% |       69533      0.62%      8.74% |       69563      0.62%      9.37% |       68913      0.62%      9.98% |       69217      0.62%     10.61% |       69339      0.62%     11.23% |       69328      0.62%     11.85% |       69460      0.62%     12.48% |       69761      0.63%     13.10% |       69620      0.63%     13.73% |       69835      0.63%     14.35% |       69994      0.63%     14.98% |       69256      0.62%     15.60% |       69261      0.62%     16.23% |       69665      0.63%     16.85% |       69747      0.63%     17.48% |       69326      0.62%     18.10% |       69373      0.62%     18.72% |       69612      0.63%     19.35% |       69346      0.62%     19.97% |       69131      0.62%     20.59% |       70035      0.63%     21.22% |       69647      0.63%     21.85% |       69568      0.62%     22.47% |       69892      0.63%     23.10% |       69526      0.62%     23.72% |       69433      0.62%     24.35% |       69750      0.63%     24.97% |       69779      0.63%     25.60% |       69736      0.63%     26.23% |       69335      0.62%     26.85% |       69308      0.62%     27.47% |       69455      0.62%     28.10% |       69775      0.63%     28.72% |       69738      0.63%     29.35% |       69565      0.62%     29.97% |       69767      0.63%     30.60% |       69320      0.62%     31.22% |       69571      0.62%     31.85% |       69581      0.62%     32.47% |       69543      0.62%     33.10% |       70005      0.63%     33.72% |       69637      0.63%     34.35% |       69667      0.63%     34.98% |       69476      0.62%     35.60% |       69459      0.62%     36.22% |       69936      0.63%     36.85% |       69580      0.62%     37.48% |       69741      0.63%     38.10% |       69405      0.62%     38.73% |       69796      0.63%     39.35% |       69747      0.63%     39.98% |       69391      0.62%     40.60% |       69613      0.63%     41.23% |       69574      0.62%     41.85% |       69167      0.62%     42.47% |       69572      0.62%     43.10% |       69129      0.62%     43.72% |       69525      0.62%     44.34% |       69399      0.62%     44.97% |       69565      0.62%     45.59% |       69101      0.62%     46.21% |       70094      0.63%     46.84% |       69346      0.62%     47.46% |       69703      0.63%     48.09% |       69619      0.63%     48.72% |       69385      0.62%     49.34% |       69542      0.62%     49.96% |       69852      0.63%     50.59% |       70327      0.63%     51.22% |       69383      0.62%     51.84% |       69681      0.63%     52.47% |       69698      0.63%     53.10% |       69295      0.62%     53.72% |       69521      0.62%     54.34% |       69541      0.62%     54.97% |       69577      0.62%     55.59% |       69590      0.62%     56.22% |       69246      0.62%     56.84% |       69550      0.62%     57.46% |       69831      0.63%     58.09% |       70033      0.63%     58.72% |       69539      0.62%     59.34% |       69610      0.63%     59.97% |       69913      0.63%     60.60% |       69739      0.63%     61.22% |       69718      0.63%     61.85% |       69953      0.63%     62.48% |       69809      0.63%     63.10% |       69802      0.63%     63.73% |       69642      0.63%     64.36% |       69367      0.62%     64.98% |       69261      0.62%     65.60% |       69901      0.63%     66.23% |       69671      0.63%     66.86% |       69330      0.62%     67.48% |       69260      0.62%     68.10% |       69541      0.62%     68.72% |       69233      0.62%     69.35% |       69968      0.63%     69.97% |       70378      0.63%     70.61% |       69572      0.62%     71.23% |       69827      0.63%     71.86% |       69639      0.63%     72.48% |       69660      0.63%     73.11% |       69922      0.63%     73.74% |       69445      0.62%     74.36% |       69599      0.63%     74.99% |       69773      0.63%     75.61% |       69505      0.62%     76.24% |       69713      0.63%     76.86% |       69808      0.63%     77.49% |       69477      0.62%     78.11% |       69588      0.62%     78.74% |       69068      0.62%     79.36% |       69712      0.63%     79.98% |       69927      0.63%     80.61% |       69337      0.62%     81.24% |       69357      0.62%     81.86% |       69403      0.62%     82.48% |       69511      0.62%     83.11% |       69527      0.62%     83.73% |       69540      0.62%     84.35% |       69653      0.63%     84.98% |       70160      0.63%     85.61% |       69617      0.63%     86.24% |       69506      0.62%     86.86% |       69754      0.63%     87.49% |       69810      0.63%     88.11% |       69348      0.62%     88.74% |       70163      0.63%     89.37% |       69649      0.63%     89.99% |       69569      0.62%     90.62% |       70125      0.63%     91.25% |       69483      0.62%     91.87% |       70006      0.63%     92.50% |       69791      0.63%     93.13% |       69601      0.63%     93.75% |       69689      0.63%     94.38% |       69578      0.62%     95.00% |       69725      0.63%     95.63% |       69694      0.63%     96.25% |       69995      0.63%     96.88% |       69470      0.62%     97.51% |       69573      0.62%     98.13% |       69426      0.62%     98.75% |       69635      0.63%     99.38% |       69164      0.62%    100.00% (Unspecified)
system.ruby.Directory_Controller.Receive_Response::total     11135434                       (Unspecified)
system.ruby.Directory_Controller.I.Receive_Request |      144035      0.62%      0.62% |      144711      0.62%      1.25% |      144825      0.63%      1.87% |      144876      0.63%      2.50% |      145368      0.63%      3.12% |      144781      0.62%      3.75% |      144820      0.63%      4.37% |      144894      0.63%      5.00% |      145329      0.63%      5.63% |      144681      0.62%      6.25% |      144694      0.62%      6.88% |      144562      0.62%      7.50% |      145072      0.63%      8.13% |      144657      0.62%      8.75% |      144478      0.62%      9.37% |      144280      0.62%     10.00% |      144777      0.62%     10.62% |      145049      0.63%     11.25% |      144846      0.63%     11.87% |      144918      0.63%     12.50% |      145403      0.63%     13.13% |      144980      0.63%     13.75% |      144896      0.63%     14.38% |      144206      0.62%     15.00% |      144494      0.62%     15.62% |      145325      0.63%     16.25% |      144364      0.62%     16.87% |      145035      0.63%     17.50% |      144990      0.63%     18.12% |      145642      0.63%     18.75% |      144713      0.62%     19.38% |      145133      0.63%     20.00% |      145518      0.63%     20.63% |      144812      0.62%     21.26% |      144869      0.63%     21.88% |      145027      0.63%     22.51% |      145070      0.63%     23.13% |      144431      0.62%     23.76% |      145171      0.63%     24.38% |      145124      0.63%     25.01% |      144715      0.62%     25.63% |      144848      0.63%     26.26% |      144173      0.62%     26.88% |      144791      0.62%     27.51% |      144249      0.62%     28.13% |      145140      0.63%     28.76% |      145025      0.63%     29.38% |      144691      0.62%     30.01% |      144538      0.62%     30.63% |      145095      0.63%     31.26% |      144843      0.63%     31.88% |      144910      0.63%     32.51% |      144837      0.63%     33.13% |      144742      0.62%     33.76% |      144265      0.62%     34.38% |      145076      0.63%     35.01% |      144373      0.62%     35.63% |      144690      0.62%     36.25% |      145040      0.63%     36.88% |      145149      0.63%     37.51% |      144977      0.63%     38.13% |      144167      0.62%     38.75% |      145118      0.63%     39.38% |      144965      0.63%     40.01% |      144524      0.62%     40.63% |      144927      0.63%     41.25% |      145095      0.63%     41.88% |      144820      0.63%     42.51% |      144480      0.62%     43.13% |      144563      0.62%     43.75% |      144439      0.62%     44.38% |      145258      0.63%     45.00% |      144533      0.62%     45.63% |      144882      0.63%     46.25% |      144632      0.62%     46.88% |      145587      0.63%     47.51% |      145167      0.63%     48.13% |      144208      0.62%     48.75% |      144401      0.62%     49.38% |      144473      0.62%     50.00% |      144607      0.62%     50.63% |      144106      0.62%     51.25% |      144387      0.62%     51.87% |      145019      0.63%     52.50% |      144296      0.62%     53.12% |      145243      0.63%     53.75% |      144665      0.62%     54.37% |      145166      0.63%     55.00% |      145405      0.63%     55.62% |      144157      0.62%     56.25% |      145204      0.63%     56.87% |      145338      0.63%     57.50% |      144552      0.62%     58.12% |      145389      0.63%     58.75% |      145557      0.63%     59.38% |      144784      0.62%     60.01% |      145119      0.63%     60.63% |      144785      0.62%     61.26% |      144816      0.63%     61.88% |      144937      0.63%     62.51% |      145492      0.63%     63.13% |      144395      0.62%     63.76% |      144814      0.63%     64.38% |      144518      0.62%     65.01% |      144483      0.62%     65.63% |      144673      0.62%     66.25% |      145137      0.63%     66.88% |      144568      0.62%     67.51% |      144746      0.62%     68.13% |      144452      0.62%     68.75% |      144668      0.62%     69.38% |      145225      0.63%     70.00% |      145346      0.63%     70.63% |      144642      0.62%     71.26% |      145136      0.63%     71.88% |      144802      0.62%     72.51% |      144959      0.63%     73.13% |      144255      0.62%     73.76% |      145283      0.63%     74.38% |      144299      0.62%     75.01% |      144126      0.62%     75.63% |      145037      0.63%     76.25% |      144504      0.62%     76.88% |      145107      0.63%     77.50% |      145163      0.63%     78.13% |      144662      0.62%     78.75% |      144414      0.62%     79.38% |      144879      0.63%     80.00% |      144881      0.63%     80.63% |      144757      0.62%     81.25% |      144313      0.62%     81.88% |      145009      0.63%     82.50% |      144715      0.62%     83.13% |      145339      0.63%     83.75% |      145341      0.63%     84.38% |      144947      0.63%     85.01% |      144176      0.62%     85.63% |      144573      0.62%     86.25% |      144686      0.62%     86.88% |      144927      0.63%     87.50% |      144558      0.62%     88.13% |      144722      0.62%     88.75% |      144810      0.62%     89.38% |      144846      0.63%     90.00% |      144237      0.62%     90.62% |      144705      0.62%     91.25% |      144943      0.63%     91.87% |      144412      0.62%     92.50% |      144660      0.62%     93.12% |      144806      0.62%     93.75% |      144700      0.62%     94.37% |      144726      0.62%     95.00% |      144714      0.62%     95.62% |      144875      0.63%     96.25% |      145075      0.63%     96.87% |      145273      0.63%     97.50% |      145154      0.63%     98.12% |      144684      0.62%     98.75% |      145122      0.63%     99.38% |      144667      0.62%    100.00% (Unspecified)
system.ruby.Directory_Controller.I.Receive_Request::total     23169932                       (Unspecified)
system.ruby.Directory_Controller.I.Receive_Response |       69503      0.62%      0.62% |       69548      0.62%      1.25% |       69746      0.63%      1.88% |       69138      0.62%      2.50% |       69161      0.62%      3.12% |       69503      0.62%      3.74% |       69410      0.62%      4.36% |       69545      0.62%      4.99% |       69356      0.62%      5.61% |       69735      0.63%      6.24% |       69731      0.63%      6.86% |       69939      0.63%      7.49% |       69487      0.62%      8.12% |       69533      0.62%      8.74% |       69563      0.62%      9.37% |       68913      0.62%      9.98% |       69217      0.62%     10.61% |       69339      0.62%     11.23% |       69328      0.62%     11.85% |       69460      0.62%     12.48% |       69761      0.63%     13.10% |       69620      0.63%     13.73% |       69835      0.63%     14.35% |       69994      0.63%     14.98% |       69256      0.62%     15.60% |       69261      0.62%     16.23% |       69665      0.63%     16.85% |       69747      0.63%     17.48% |       69326      0.62%     18.10% |       69373      0.62%     18.72% |       69612      0.63%     19.35% |       69346      0.62%     19.97% |       69131      0.62%     20.59% |       70035      0.63%     21.22% |       69647      0.63%     21.85% |       69568      0.62%     22.47% |       69892      0.63%     23.10% |       69526      0.62%     23.72% |       69433      0.62%     24.35% |       69750      0.63%     24.97% |       69779      0.63%     25.60% |       69736      0.63%     26.23% |       69335      0.62%     26.85% |       69308      0.62%     27.47% |       69455      0.62%     28.10% |       69775      0.63%     28.72% |       69738      0.63%     29.35% |       69565      0.62%     29.97% |       69767      0.63%     30.60% |       69320      0.62%     31.22% |       69571      0.62%     31.85% |       69581      0.62%     32.47% |       69543      0.62%     33.10% |       70005      0.63%     33.72% |       69637      0.63%     34.35% |       69667      0.63%     34.98% |       69476      0.62%     35.60% |       69459      0.62%     36.22% |       69936      0.63%     36.85% |       69580      0.62%     37.48% |       69741      0.63%     38.10% |       69405      0.62%     38.73% |       69796      0.63%     39.35% |       69747      0.63%     39.98% |       69391      0.62%     40.60% |       69613      0.63%     41.23% |       69574      0.62%     41.85% |       69167      0.62%     42.47% |       69572      0.62%     43.10% |       69129      0.62%     43.72% |       69525      0.62%     44.34% |       69399      0.62%     44.97% |       69565      0.62%     45.59% |       69101      0.62%     46.21% |       70094      0.63%     46.84% |       69346      0.62%     47.46% |       69703      0.63%     48.09% |       69619      0.63%     48.72% |       69385      0.62%     49.34% |       69542      0.62%     49.96% |       69852      0.63%     50.59% |       70327      0.63%     51.22% |       69383      0.62%     51.84% |       69681      0.63%     52.47% |       69698      0.63%     53.10% |       69295      0.62%     53.72% |       69521      0.62%     54.34% |       69541      0.62%     54.97% |       69577      0.62%     55.59% |       69590      0.62%     56.22% |       69246      0.62%     56.84% |       69550      0.62%     57.46% |       69831      0.63%     58.09% |       70033      0.63%     58.72% |       69539      0.62%     59.34% |       69610      0.63%     59.97% |       69913      0.63%     60.60% |       69739      0.63%     61.22% |       69718      0.63%     61.85% |       69953      0.63%     62.48% |       69809      0.63%     63.10% |       69802      0.63%     63.73% |       69642      0.63%     64.36% |       69367      0.62%     64.98% |       69261      0.62%     65.60% |       69901      0.63%     66.23% |       69671      0.63%     66.86% |       69330      0.62%     67.48% |       69260      0.62%     68.10% |       69541      0.62%     68.72% |       69233      0.62%     69.35% |       69968      0.63%     69.97% |       70378      0.63%     70.61% |       69572      0.62%     71.23% |       69827      0.63%     71.86% |       69639      0.63%     72.48% |       69660      0.63%     73.11% |       69922      0.63%     73.74% |       69445      0.62%     74.36% |       69599      0.63%     74.99% |       69773      0.63%     75.61% |       69505      0.62%     76.24% |       69713      0.63%     76.86% |       69808      0.63%     77.49% |       69477      0.62%     78.11% |       69588      0.62%     78.74% |       69068      0.62%     79.36% |       69712      0.63%     79.98% |       69927      0.63%     80.61% |       69337      0.62%     81.24% |       69357      0.62%     81.86% |       69403      0.62%     82.48% |       69511      0.62%     83.11% |       69527      0.62%     83.73% |       69540      0.62%     84.35% |       69653      0.63%     84.98% |       70160      0.63%     85.61% |       69617      0.63%     86.24% |       69506      0.62%     86.86% |       69754      0.63%     87.49% |       69810      0.63%     88.11% |       69348      0.62%     88.74% |       70163      0.63%     89.37% |       69649      0.63%     89.99% |       69569      0.62%     90.62% |       70125      0.63%     91.25% |       69483      0.62%     91.87% |       70006      0.63%     92.50% |       69791      0.63%     93.13% |       69601      0.63%     93.75% |       69689      0.63%     94.38% |       69578      0.62%     95.00% |       69725      0.63%     95.63% |       69694      0.63%     96.25% |       69995      0.63%     96.88% |       69470      0.62%     97.51% |       69573      0.62%     98.13% |       69426      0.62%     98.75% |       69635      0.63%     99.38% |       69164      0.62%    100.00% (Unspecified)
system.ruby.Directory_Controller.I.Receive_Response::total     11135434                       (Unspecified)
system.ruby.L1Cache_Controller.Request   |      579735      2.50%      2.50% |      579418      2.50%      5.00% |      577825      2.49%      7.50% |      578676      2.50%      9.99% |      578472      2.50%     12.49% |      579473      2.50%     14.99% |      580165      2.50%     17.50% |      578472      2.50%     19.99% |      579703      2.50%     22.49% |      579387      2.50%     24.99% |      578804      2.50%     27.49% |      578584      2.50%     29.99% |      578844      2.50%     32.49% |      578827      2.50%     34.99% |      580744      2.51%     37.49% |      579950      2.50%     40.00% |      579546      2.50%     42.50% |      579666      2.50%     45.00% |      578361      2.50%     47.50% |      578473      2.50%     49.99% |      579810      2.50%     52.49% |      577947      2.49%     54.99% |      580255      2.50%     57.49% |      579037      2.50%     59.99% |      579091      2.50%     62.49% |      579564      2.50%     64.99% |      577518      2.49%     67.49% |      580303      2.50%     69.99% |      579385      2.50%     72.49% |      578658      2.50%     74.99% |      580682      2.51%     77.49% |      578440      2.50%     79.99% |      578955      2.50%     82.49% |      579981      2.50%     84.99% |      579249      2.50%     87.49% |      580282      2.50%     90.00% |      579452      2.50%     92.50% |      579016      2.50%     95.00% |      579041      2.50%     97.50% |      580228      2.50%    100.00% (Unspecified)
system.ruby.L1Cache_Controller.Request::total     23170019                       (Unspecified)
system.ruby.L1Cache_Controller.Response  |      579353      2.50%      2.50% |      579971      2.50%      5.00% |      579538      2.50%      7.51% |      579897      2.50%     10.01% |      580464      2.51%     12.51% |      579490      2.50%     15.01% |      578439      2.50%     17.51% |      580297      2.50%     20.02% |      580525      2.51%     22.52% |      579850      2.50%     25.02% |      579913      2.50%     27.53% |      579292      2.50%     30.03% |      579399      2.50%     32.53% |      580053      2.50%     35.03% |      579317      2.50%     37.53% |      579185      2.50%     40.03% |      579568      2.50%     42.53% |      578256      2.50%     45.03% |      579788      2.50%     47.53% |      578879      2.50%     50.03% |      579882      2.50%     52.53% |      579935      2.50%     55.04% |      577772      2.49%     57.53% |      578360      2.50%     60.03% |      579854      2.50%     62.53% |      578249      2.50%     65.02% |      579531      2.50%     67.53% |      579440      2.50%     70.03% |      577963      2.49%     72.52% |      578462      2.50%     75.02% |      579653      2.50%     77.52% |      578746      2.50%     80.02% |      578184      2.50%     82.51% |      577236      2.49%     85.00% |      578354      2.50%     87.50% |      578300      2.50%     90.00% |      578976      2.50%     92.50% |      578550      2.50%     94.99% |      579941      2.50%     97.50% |      580144      2.50%    100.00% (Unspecified)
system.ruby.L1Cache_Controller.Response::total     23169006                       (Unspecified)
system.ruby.L1Cache_Controller.I.Request |      579735      2.50%      2.50% |      579418      2.50%      5.00% |      577825      2.49%      7.50% |      578676      2.50%      9.99% |      578472      2.50%     12.49% |      579473      2.50%     14.99% |      580165      2.50%     17.50% |      578472      2.50%     19.99% |      579703      2.50%     22.49% |      579387      2.50%     24.99% |      578804      2.50%     27.49% |      578584      2.50%     29.99% |      578844      2.50%     32.49% |      578827      2.50%     34.99% |      580744      2.51%     37.49% |      579950      2.50%     40.00% |      579546      2.50%     42.50% |      579666      2.50%     45.00% |      578361      2.50%     47.50% |      578473      2.50%     49.99% |      579810      2.50%     52.49% |      577947      2.49%     54.99% |      580255      2.50%     57.49% |      579037      2.50%     59.99% |      579091      2.50%     62.49% |      579564      2.50%     64.99% |      577518      2.49%     67.49% |      580303      2.50%     69.99% |      579385      2.50%     72.49% |      578658      2.50%     74.99% |      580682      2.51%     77.49% |      578440      2.50%     79.99% |      578955      2.50%     82.49% |      579981      2.50%     84.99% |      579249      2.50%     87.49% |      580282      2.50%     90.00% |      579452      2.50%     92.50% |      579016      2.50%     95.00% |      579041      2.50%     97.50% |      580228      2.50%    100.00% (Unspecified)
system.ruby.L1Cache_Controller.I.Request::total     23170019                       (Unspecified)
system.ruby.L1Cache_Controller.I.Response |      579353      2.50%      2.50% |      579971      2.50%      5.00% |      579538      2.50%      7.51% |      579897      2.50%     10.01% |      580464      2.51%     12.51% |      579490      2.50%     15.01% |      578439      2.50%     17.51% |      580297      2.50%     20.02% |      580525      2.51%     22.52% |      579850      2.50%     25.02% |      579913      2.50%     27.53% |      579292      2.50%     30.03% |      579399      2.50%     32.53% |      580053      2.50%     35.03% |      579317      2.50%     37.53% |      579185      2.50%     40.03% |      579568      2.50%     42.53% |      578256      2.50%     45.03% |      579788      2.50%     47.53% |      578879      2.50%     50.03% |      579882      2.50%     52.53% |      579935      2.50%     55.04% |      577772      2.49%     57.53% |      578360      2.50%     60.03% |      579854      2.50%     62.53% |      578249      2.50%     65.02% |      579531      2.50%     67.53% |      579440      2.50%     70.03% |      577963      2.49%     72.52% |      578462      2.50%     75.02% |      579653      2.50%     77.52% |      578746      2.50%     80.02% |      578184      2.50%     82.51% |      577236      2.49%     85.00% |      578354      2.50%     87.50% |      578300      2.50%     90.00% |      578976      2.50%     92.50% |      578550      2.50%     94.99% |      579941      2.50%     97.50% |      580144      2.50%    100.00% (Unspecified)
system.ruby.L1Cache_Controller.I.Response::total     23169006                       (Unspecified)
system.ruby.RequestType.LD.latency_hist_seqr::bucket_size            1                       (Unspecified)
system.ruby.RequestType.LD.latency_hist_seqr::max_bucket            9                       (Unspecified)
system.ruby.RequestType.LD.latency_hist_seqr::samples     23170019                       (Unspecified)
system.ruby.RequestType.LD.latency_hist_seqr::mean            1                       (Unspecified)
system.ruby.RequestType.LD.latency_hist_seqr::gmean            1                       (Unspecified)
system.ruby.RequestType.LD.latency_hist_seqr |           0      0.00%      0.00% |    23170019    100.00%    100.00% |           0      0.00%    100.00% |           0      0.00%    100.00% |           0      0.00%    100.00% |           0      0.00%    100.00% |           0      0.00%    100.00% |           0      0.00%    100.00% |           0      0.00%    100.00% |           0      0.00%    100.00% (Unspecified)
system.ruby.RequestType.LD.latency_hist_seqr::total     23170019                       (Unspecified)
system.ruby.RequestType.LD.hit_latency_hist_seqr::bucket_size            1                       (Unspecified)
system.ruby.RequestType.LD.hit_latency_hist_seqr::max_bucket            9                       (Unspecified)
system.ruby.RequestType.LD.hit_latency_hist_seqr::samples     23170019                       (Unspecified)
system.ruby.RequestType.LD.hit_latency_hist_seqr::mean            1                       (Unspecified)
system.ruby.RequestType.LD.hit_latency_hist_seqr::gmean            1                       (Unspecified)
system.ruby.RequestType.LD.hit_latency_hist_seqr |           0      0.00%      0.00% |    23170019    100.00%    100.00% |           0      0.00%    100.00% |           0      0.00%    100.00% |           0      0.00%    100.00% |           0      0.00%    100.00% |           0      0.00%    100.00% |           0      0.00%    100.00% |           0      0.00%    100.00% |           0      0.00%    100.00% (Unspecified)
system.ruby.RequestType.LD.hit_latency_hist_seqr::total     23170019                       (Unspecified)
system.ruby.RequestType.ST.latency_hist_seqr::bucket_size            1                       (Unspecified)
system.ruby.RequestType.ST.latency_hist_seqr::max_bucket            9                       (Unspecified)
system.ruby.RequestType.ST.latency_hist_seqr::samples     23169006                       (Unspecified)
system.ruby.RequestType.ST.latency_hist_seqr::mean            1                       (Unspecified)
system.ruby.RequestType.ST.latency_hist_seqr::gmean            1                       (Unspecified)
system.ruby.RequestType.ST.latency_hist_seqr |           0      0.00%      0.00% |    23169006    100.00%    100.00% |           0      0.00%    100.00% |           0      0.00%    100.00% |           0      0.00%    100.00% |           0      0.00%    100.00% |           0      0.00%    100.00% |           0      0.00%    100.00% |           0      0.00%    100.00% |           0      0.00%    100.00% (Unspecified)
system.ruby.RequestType.ST.latency_hist_seqr::total     23169006                       (Unspecified)
system.ruby.RequestType.ST.hit_latency_hist_seqr::bucket_size            1                       (Unspecified)
system.ruby.RequestType.ST.hit_latency_hist_seqr::max_bucket            9                       (Unspecified)
system.ruby.RequestType.ST.hit_latency_hist_seqr::samples     23169006                       (Unspecified)
system.ruby.RequestType.ST.hit_latency_hist_seqr::mean            1                       (Unspecified)
system.ruby.RequestType.ST.hit_latency_hist_seqr::gmean            1                       (Unspecified)
system.ruby.RequestType.ST.hit_latency_hist_seqr |           0      0.00%      0.00% |    23169006    100.00%    100.00% |           0      0.00%    100.00% |           0      0.00%    100.00% |           0      0.00%    100.00% |           0      0.00%    100.00% |           0      0.00%    100.00% |           0      0.00%    100.00% |           0      0.00%    100.00% |           0      0.00%    100.00% (Unspecified)
system.ruby.RequestType.ST.hit_latency_hist_seqr::total     23169006                       (Unspecified)
system.ruby.clk_domain.clock                      250                       # Clock period in ticks (Tick)
system.ruby.dir_cntrl0.power_state.pwrStateResidencyTicks::UNDEFINED   2147483750                       # Cumulative time (in ticks) in various power states (Tick)
system.ruby.dir_cntrl0.requestToDir.m_msg_count       144035                       # Number of messages passed the buffer (Count)
system.ruby.dir_cntrl0.requestToDir.m_buf_msgs     0.016768                       # Average number of messages in buffer ((Count/Tick))
system.ruby.dir_cntrl0.responseToDir.m_msg_count        69503                       # Number of messages passed the buffer (Count)
system.ruby.dir_cntrl0.responseToDir.m_buf_msgs     0.008091                       # Average number of messages in buffer ((Count/Tick))
system.ruby.dir_cntrl1.power_state.pwrStateResidencyTicks::UNDEFINED   2147483750                       # Cumulative time (in ticks) in various power states (Tick)
system.ruby.dir_cntrl1.requestToDir.m_msg_count       144711                       # Number of messages passed the buffer (Count)
system.ruby.dir_cntrl1.requestToDir.m_buf_msgs     0.016847                       # Average number of messages in buffer ((Count/Tick))
system.ruby.dir_cntrl1.responseToDir.m_msg_count        69548                       # Number of messages passed the buffer (Count)
system.ruby.dir_cntrl1.responseToDir.m_buf_msgs     0.008096                       # Average number of messages in buffer ((Count/Tick))
system.ruby.dir_cntrl10.power_state.pwrStateResidencyTicks::UNDEFINED   2147483750                       # Cumulative time (in ticks) in various power states (Tick)
system.ruby.dir_cntrl10.requestToDir.m_msg_count       144694                       # Number of messages passed the buffer (Count)
system.ruby.dir_cntrl10.requestToDir.m_buf_msgs     0.016845                       # Average number of messages in buffer ((Count/Tick))
system.ruby.dir_cntrl10.responseToDir.m_msg_count        69731                       # Number of messages passed the buffer (Count)
system.ruby.dir_cntrl10.responseToDir.m_buf_msgs     0.008118                       # Average number of messages in buffer ((Count/Tick))
system.ruby.dir_cntrl100.power_state.pwrStateResidencyTicks::UNDEFINED   2147483750                       # Cumulative time (in ticks) in various power states (Tick)
system.ruby.dir_cntrl100.requestToDir.m_msg_count       145492                       # Number of messages passed the buffer (Count)
system.ruby.dir_cntrl100.requestToDir.m_buf_msgs     0.016937                       # Average number of messages in buffer ((Count/Tick))
system.ruby.dir_cntrl100.responseToDir.m_msg_count        69809                       # Number of messages passed the buffer (Count)
system.ruby.dir_cntrl100.responseToDir.m_buf_msgs     0.008127                       # Average number of messages in buffer ((Count/Tick))
system.ruby.dir_cntrl101.power_state.pwrStateResidencyTicks::UNDEFINED   2147483750                       # Cumulative time (in ticks) in various power states (Tick)
system.ruby.dir_cntrl101.requestToDir.m_msg_count       144395                       # Number of messages passed the buffer (Count)
system.ruby.dir_cntrl101.requestToDir.m_buf_msgs     0.016810                       # Average number of messages in buffer ((Count/Tick))
system.ruby.dir_cntrl101.responseToDir.m_msg_count        69802                       # Number of messages passed the buffer (Count)
system.ruby.dir_cntrl101.responseToDir.m_buf_msgs     0.008126                       # Average number of messages in buffer ((Count/Tick))
system.ruby.dir_cntrl102.power_state.pwrStateResidencyTicks::UNDEFINED   2147483750                       # Cumulative time (in ticks) in various power states (Tick)
system.ruby.dir_cntrl102.requestToDir.m_msg_count       144814                       # Number of messages passed the buffer (Count)
system.ruby.dir_cntrl102.requestToDir.m_buf_msgs     0.016859                       # Average number of messages in buffer ((Count/Tick))
system.ruby.dir_cntrl102.responseToDir.m_msg_count        69642                       # Number of messages passed the buffer (Count)
system.ruby.dir_cntrl102.responseToDir.m_buf_msgs     0.008107                       # Average number of messages in buffer ((Count/Tick))
system.ruby.dir_cntrl103.power_state.pwrStateResidencyTicks::UNDEFINED   2147483750                       # Cumulative time (in ticks) in various power states (Tick)
system.ruby.dir_cntrl103.requestToDir.m_msg_count       144518                       # Number of messages passed the buffer (Count)
system.ruby.dir_cntrl103.requestToDir.m_buf_msgs     0.016824                       # Average number of messages in buffer ((Count/Tick))
system.ruby.dir_cntrl103.responseToDir.m_msg_count        69367                       # Number of messages passed the buffer (Count)
system.ruby.dir_cntrl103.responseToDir.m_buf_msgs     0.008075                       # Average number of messages in buffer ((Count/Tick))
system.ruby.dir_cntrl104.power_state.pwrStateResidencyTicks::UNDEFINED   2147483750                       # Cumulative time (in ticks) in various power states (Tick)
system.ruby.dir_cntrl104.requestToDir.m_msg_count       144483                       # Number of messages passed the buffer (Count)
system.ruby.dir_cntrl104.requestToDir.m_buf_msgs     0.016820                       # Average number of messages in buffer ((Count/Tick))
system.ruby.dir_cntrl104.responseToDir.m_msg_count        69261                       # Number of messages passed the buffer (Count)
system.ruby.dir_cntrl104.responseToDir.m_buf_msgs     0.008063                       # Average number of messages in buffer ((Count/Tick))
system.ruby.dir_cntrl105.power_state.pwrStateResidencyTicks::UNDEFINED   2147483750                       # Cumulative time (in ticks) in various power states (Tick)
system.ruby.dir_cntrl105.requestToDir.m_msg_count       144673                       # Number of messages passed the buffer (Count)
system.ruby.dir_cntrl105.requestToDir.m_buf_msgs     0.016842                       # Average number of messages in buffer ((Count/Tick))
system.ruby.dir_cntrl105.responseToDir.m_msg_count        69901                       # Number of messages passed the buffer (Count)
system.ruby.dir_cntrl105.responseToDir.m_buf_msgs     0.008138                       # Average number of messages in buffer ((Count/Tick))
system.ruby.dir_cntrl106.power_state.pwrStateResidencyTicks::UNDEFINED   2147483750                       # Cumulative time (in ticks) in various power states (Tick)
system.ruby.dir_cntrl106.requestToDir.m_msg_count       145137                       # Number of messages passed the buffer (Count)
system.ruby.dir_cntrl106.requestToDir.m_buf_msgs     0.016896                       # Average number of messages in buffer ((Count/Tick))
system.ruby.dir_cntrl106.responseToDir.m_msg_count        69671                       # Number of messages passed the buffer (Count)
system.ruby.dir_cntrl106.responseToDir.m_buf_msgs     0.008111                       # Average number of messages in buffer ((Count/Tick))
system.ruby.dir_cntrl107.power_state.pwrStateResidencyTicks::UNDEFINED   2147483750                       # Cumulative time (in ticks) in various power states (Tick)
system.ruby.dir_cntrl107.requestToDir.m_msg_count       144568                       # Number of messages passed the buffer (Count)
system.ruby.dir_cntrl107.requestToDir.m_buf_msgs     0.016830                       # Average number of messages in buffer ((Count/Tick))
system.ruby.dir_cntrl107.responseToDir.m_msg_count        69330                       # Number of messages passed the buffer (Count)
system.ruby.dir_cntrl107.responseToDir.m_buf_msgs     0.008071                       # Average number of messages in buffer ((Count/Tick))
system.ruby.dir_cntrl108.power_state.pwrStateResidencyTicks::UNDEFINED   2147483750                       # Cumulative time (in ticks) in various power states (Tick)
system.ruby.dir_cntrl108.requestToDir.m_msg_count       144746                       # Number of messages passed the buffer (Count)
system.ruby.dir_cntrl108.requestToDir.m_buf_msgs     0.016851                       # Average number of messages in buffer ((Count/Tick))
system.ruby.dir_cntrl108.responseToDir.m_msg_count        69260                       # Number of messages passed the buffer (Count)
system.ruby.dir_cntrl108.responseToDir.m_buf_msgs     0.008063                       # Average number of messages in buffer ((Count/Tick))
system.ruby.dir_cntrl109.power_state.pwrStateResidencyTicks::UNDEFINED   2147483750                       # Cumulative time (in ticks) in various power states (Tick)
system.ruby.dir_cntrl109.requestToDir.m_msg_count       144452                       # Number of messages passed the buffer (Count)
system.ruby.dir_cntrl109.requestToDir.m_buf_msgs     0.016816                       # Average number of messages in buffer ((Count/Tick))
system.ruby.dir_cntrl109.responseToDir.m_msg_count        69541                       # Number of messages passed the buffer (Count)
system.ruby.dir_cntrl109.responseToDir.m_buf_msgs     0.008096                       # Average number of messages in buffer ((Count/Tick))
system.ruby.dir_cntrl11.power_state.pwrStateResidencyTicks::UNDEFINED   2147483750                       # Cumulative time (in ticks) in various power states (Tick)
system.ruby.dir_cntrl11.requestToDir.m_msg_count       144562                       # Number of messages passed the buffer (Count)
system.ruby.dir_cntrl11.requestToDir.m_buf_msgs     0.016829                       # Average number of messages in buffer ((Count/Tick))
system.ruby.dir_cntrl11.responseToDir.m_msg_count        69939                       # Number of messages passed the buffer (Count)
[...]
system.ruby.network.sankey.vcvn13.vcvn5             0                       (Unspecified)
system.ruby.network.sankey.vcvn13.vcvn6             0                       (Unspecified)
system.ruby.network.sankey.vcvn13.vcvn7             0                       (Unspecified)
system.ruby.network.sankey.vcvn13.vcvn8             0                       (Unspecified)
system.ruby.network.sankey.vcvn13.vcvn9             0                       (Unspecified)
system.ruby.network.sankey.vcvn14.vcvn0             0                       (Unspecified)
system.ruby.network.sankey.vcvn14.vcvn1             0                       (Unspecified)
system.ruby.network.sankey.vcvn14.vcvn10            0                       (Unspecified)
system.ruby.network.sankey.vcvn14.vcvn11            0                       (Unspecified)
system.ruby.network.sankey.vcvn14.vcvn12            0                       (Unspecified)
system.ruby.network.sankey.vcvn14.vcvn13            0                       (Unspecified)
system.ruby.network.sankey.vcvn14.vcvn14      3834217                       (Unspecified)
system.ruby.network.sankey.vcvn14.vcvn15            0                       (Unspecified)
system.ruby.network.sankey.vcvn14.vcvn16            0                       (Unspecified)
system.ruby.network.sankey.vcvn14.vcvn17            0                       (Unspecified)
system.ruby.network.sankey.vcvn14.vcvn2             0                       (Unspecified)
system.ruby.network.sankey.vcvn14.vcvn3             0                       (Unspecified)
system.ruby.network.sankey.vcvn14.vcvn4             0                       (Unspecified)
system.ruby.network.sankey.vcvn14.vcvn5             0                       (Unspecified)
system.ruby.network.sankey.vcvn14.vcvn6             0                       (Unspecified)
system.ruby.network.sankey.vcvn14.vcvn7             0                       (Unspecified)
system.ruby.network.sankey.vcvn14.vcvn8             0                       (Unspecified)
system.ruby.network.sankey.vcvn14.vcvn9             0                       (Unspecified)
system.ruby.network.sankey.vcvn15.vcvn0             0                       (Unspecified)
system.ruby.network.sankey.vcvn15.vcvn1             0                       (Unspecified)
system.ruby.network.sankey.vcvn15.vcvn10            0                       (Unspecified)
system.ruby.network.sankey.vcvn15.vcvn11            0                       (Unspecified)
system.ruby.network.sankey.vcvn15.vcvn12            0                       (Unspecified)
system.ruby.network.sankey.vcvn15.vcvn13            0                       (Unspecified)
system.ruby.network.sankey.vcvn15.vcvn14            0                       (Unspecified)
system.ruby.network.sankey.vcvn15.vcvn15      4211179                       (Unspecified)
system.ruby.network.sankey.vcvn15.vcvn16            0                       (Unspecified)
system.ruby.network.sankey.vcvn15.vcvn17            0                       (Unspecified)
system.ruby.network.sankey.vcvn15.vcvn2             0                       (Unspecified)
system.ruby.network.sankey.vcvn15.vcvn3             0                       (Unspecified)
system.ruby.network.sankey.vcvn15.vcvn4             0                       (Unspecified)
system.ruby.network.sankey.vcvn15.vcvn5             0                       (Unspecified)
system.ruby.network.sankey.vcvn15.vcvn6             0                       (Unspecified)
system.ruby.network.sankey.vcvn15.vcvn7             0                       (Unspecified)
system.ruby.network.sankey.vcvn15.vcvn8             0                       (Unspecified)
system.ruby.network.sankey.vcvn15.vcvn9             0                       (Unspecified)
system.ruby.network.sankey.vcvn16.vcvn0             0                       (Unspecified)
system.ruby.network.sankey.vcvn16.vcvn1             0                       (Unspecified)
system.ruby.network.sankey.vcvn16.vcvn10            0                       (Unspecified)
system.ruby.network.sankey.vcvn16.vcvn11            0                       (Unspecified)
system.ruby.network.sankey.vcvn16.vcvn12            0                       (Unspecified)
system.ruby.network.sankey.vcvn16.vcvn13            0                       (Unspecified)
system.ruby.network.sankey.vcvn16.vcvn14            0                       (Unspecified)
system.ruby.network.sankey.vcvn16.vcvn15            0                       (Unspecified)
system.ruby.network.sankey.vcvn16.vcvn16      3527419                       (Unspecified)
system.ruby.network.sankey.vcvn16.vcvn17            0                       (Unspecified)
system.ruby.network.sankey.vcvn16.vcvn2             0                       (Unspecified)
system.ruby.network.sankey.vcvn16.vcvn3             0                       (Unspecified)
system.ruby.network.sankey.vcvn16.vcvn4             0                       (Unspecified)
system.ruby.network.sankey.vcvn16.vcvn5             0                       (Unspecified)
system.ruby.network.sankey.vcvn16.vcvn6             0                       (Unspecified)
system.ruby.network.sankey.vcvn16.vcvn7             0                       (Unspecified)
system.ruby.network.sankey.vcvn16.vcvn8             0                       (Unspecified)
system.ruby.network.sankey.vcvn16.vcvn9             0                       (Unspecified)
system.ruby.network.sankey.vcvn17.vcvn0             0                       (Unspecified)
system.ruby.network.sankey.vcvn17.vcvn1             0                       (Unspecified)
system.ruby.network.sankey.vcvn17.vcvn10            0                       (Unspecified)
system.ruby.network.sankey.vcvn17.vcvn11            0                       (Unspecified)
system.ruby.network.sankey.vcvn17.vcvn12            0                       (Unspecified)
system.ruby.network.sankey.vcvn17.vcvn13            0                       (Unspecified)
system.ruby.network.sankey.vcvn17.vcvn14            0                       (Unspecified)
system.ruby.network.sankey.vcvn17.vcvn15            0                       (Unspecified)
system.ruby.network.sankey.vcvn17.vcvn16            0                       (Unspecified)
system.ruby.network.sankey.vcvn17.vcvn17      3770652                       (Unspecified)
system.ruby.network.sankey.vcvn17.vcvn2             0                       (Unspecified)
system.ruby.network.sankey.vcvn17.vcvn3             0                       (Unspecified)
system.ruby.network.sankey.vcvn17.vcvn4             0                       (Unspecified)
system.ruby.network.sankey.vcvn17.vcvn5             0                       (Unspecified)
system.ruby.network.sankey.vcvn17.vcvn6             0                       (Unspecified)
system.ruby.network.sankey.vcvn17.vcvn7             0                       (Unspecified)
system.ruby.network.sankey.vcvn17.vcvn8             0                       (Unspecified)
system.ruby.network.sankey.vcvn17.vcvn9             0                       (Unspecified)
system.ruby.network.sankey.vcvn2.vcvn0              0                       (Unspecified)
system.ruby.network.sankey.vcvn2.vcvn1              0                       (Unspecified)
system.ruby.network.sankey.vcvn2.vcvn10             0                       (Unspecified)
system.ruby.network.sankey.vcvn2.vcvn11             0                       (Unspecified)
system.ruby.network.sankey.vcvn2.vcvn12             0                       (Unspecified)
system.ruby.network.sankey.vcvn2.vcvn13             0                       (Unspecified)
system.ruby.network.sankey.vcvn2.vcvn14             0                       (Unspecified)
system.ruby.network.sankey.vcvn2.vcvn15             0                       (Unspecified)
system.ruby.network.sankey.vcvn2.vcvn16             0                       (Unspecified)
system.ruby.network.sankey.vcvn2.vcvn17             0                       (Unspecified)
system.ruby.network.sankey.vcvn2.vcvn2        4060624                       (Unspecified)
system.ruby.network.sankey.vcvn2.vcvn3              0                       (Unspecified)
system.ruby.network.sankey.vcvn2.vcvn4              0                       (Unspecified)
system.ruby.network.sankey.vcvn2.vcvn5              0                       (Unspecified)
system.ruby.network.sankey.vcvn2.vcvn6              0                       (Unspecified)
system.ruby.network.sankey.vcvn2.vcvn7              0                       (Unspecified)
system.ruby.network.sankey.vcvn2.vcvn8              0                       (Unspecified)
system.ruby.network.sankey.vcvn2.vcvn9              0                       (Unspecified)
system.ruby.network.sankey.vcvn3.vcvn0              0                       (Unspecified)
system.ruby.network.sankey.vcvn3.vcvn1              0                       (Unspecified)
system.ruby.network.sankey.vcvn3.vcvn10             0                       (Unspecified)
system.ruby.network.sankey.vcvn3.vcvn11             0                       (Unspecified)
system.ruby.network.sankey.vcvn3.vcvn12             0                       (Unspecified)
system.ruby.network.sankey.vcvn3.vcvn13             0                       (Unspecified)
system.ruby.network.sankey.vcvn3.vcvn14             0                       (Unspecified)
system.ruby.network.sankey.vcvn3.vcvn15             0                       (Unspecified)
system.ruby.network.sankey.vcvn3.vcvn16             0                       (Unspecified)
system.ruby.network.sankey.vcvn3.vcvn17             0                       (Unspecified)
system.ruby.network.sankey.vcvn3.vcvn2              0                       (Unspecified)
system.ruby.network.sankey.vcvn3.vcvn3        2915743                       (Unspecified)
system.ruby.network.sankey.vcvn3.vcvn4              0                       (Unspecified)
system.ruby.network.sankey.vcvn3.vcvn5              0                       (Unspecified)
system.ruby.network.sankey.vcvn3.vcvn6              0                       (Unspecified)
system.ruby.network.sankey.vcvn3.vcvn7              0                       (Unspecified)
system.ruby.network.sankey.vcvn3.vcvn8              0                       (Unspecified)
system.ruby.network.sankey.vcvn3.vcvn9              0                       (Unspecified)
system.ruby.network.sankey.vcvn4.vcvn0              0                       (Unspecified)
system.ruby.network.sankey.vcvn4.vcvn1              0                       (Unspecified)
system.ruby.network.sankey.vcvn4.vcvn10             0                       (Unspecified)
system.ruby.network.sankey.vcvn4.vcvn11             0                       (Unspecified)
system.ruby.network.sankey.vcvn4.vcvn12             0                       (Unspecified)
system.ruby.network.sankey.vcvn4.vcvn13             0                       (Unspecified)
system.ruby.network.sankey.vcvn4.vcvn14             0                       (Unspecified)
system.ruby.network.sankey.vcvn4.vcvn15             0                       (Unspecified)
system.ruby.network.sankey.vcvn4.vcvn16             0                       (Unspecified)
system.ruby.network.sankey.vcvn4.vcvn17             0                       (Unspecified)
system.ruby.network.sankey.vcvn4.vcvn2              0                       (Unspecified)
system.ruby.network.sankey.vcvn4.vcvn3              0                       (Unspecified)
system.ruby.network.sankey.vcvn4.vcvn4        2986172                       (Unspecified)
system.ruby.network.sankey.vcvn4.vcvn5              0                       (Unspecified)
system.ruby.network.sankey.vcvn4.vcvn6              0                       (Unspecified)
system.ruby.network.sankey.vcvn4.vcvn7              0                       (Unspecified)
system.ruby.network.sankey.vcvn4.vcvn8              0                       (Unspecified)
system.ruby.network.sankey.vcvn4.vcvn9              0                       (Unspecified)
system.ruby.network.sankey.vcvn5.vcvn0              0                       (Unspecified)
system.ruby.network.sankey.vcvn5.vcvn1              0                       (Unspecified)
system.ruby.network.sankey.vcvn5.vcvn10             0                       (Unspecified)
system.ruby.network.sankey.vcvn5.vcvn11             0                       (Unspecified)
system.ruby.network.sankey.vcvn5.vcvn12             0                       (Unspecified)
system.ruby.network.sankey.vcvn5.vcvn13             0                       (Unspecified)
system.ruby.network.sankey.vcvn5.vcvn14             0                       (Unspecified)
system.ruby.network.sankey.vcvn5.vcvn15             0                       (Unspecified)
system.ruby.network.sankey.vcvn5.vcvn16             0                       (Unspecified)
system.ruby.network.sankey.vcvn5.vcvn17             0                       (Unspecified)
system.ruby.network.sankey.vcvn5.vcvn2              0                       (Unspecified)
system.ruby.network.sankey.vcvn5.vcvn3              0                       (Unspecified)
system.ruby.network.sankey.vcvn5.vcvn4              0                       (Unspecified)
system.ruby.network.sankey.vcvn5.vcvn5        2501309                       (Unspecified)
system.ruby.network.sankey.vcvn5.vcvn6              0                       (Unspecified)
system.ruby.network.sankey.vcvn5.vcvn7              0                       (Unspecified)
system.ruby.network.sankey.vcvn5.vcvn8              0                       (Unspecified)
system.ruby.network.sankey.vcvn5.vcvn9              0                       (Unspecified)
system.ruby.network.sankey.vcvn6.vcvn0              0                       (Unspecified)
system.ruby.network.sankey.vcvn6.vcvn1              0                       (Unspecified)
system.ruby.network.sankey.vcvn6.vcvn10             0                       (Unspecified)
system.ruby.network.sankey.vcvn6.vcvn11             0                       (Unspecified)
system.ruby.network.sankey.vcvn6.vcvn12             0                       (Unspecified)
system.ruby.network.sankey.vcvn6.vcvn13             0                       (Unspecified)
system.ruby.network.sankey.vcvn6.vcvn14             0                       (Unspecified)
system.ruby.network.sankey.vcvn6.vcvn15             0                       (Unspecified)
system.ruby.network.sankey.vcvn6.vcvn16             0                       (Unspecified)
system.ruby.network.sankey.vcvn6.vcvn17             0                       (Unspecified)
system.ruby.network.sankey.vcvn6.vcvn2              0                       (Unspecified)
system.ruby.network.sankey.vcvn6.vcvn3              0                       (Unspecified)
system.ruby.network.sankey.vcvn6.vcvn4              0                       (Unspecified)
system.ruby.network.sankey.vcvn6.vcvn5              0                       (Unspecified)
system.ruby.network.sankey.vcvn6.vcvn6              0                       (Unspecified)
system.ruby.network.sankey.vcvn6.vcvn7              0                       (Unspecified)
system.ruby.network.sankey.vcvn6.vcvn8              0                       (Unspecified)
system.ruby.network.sankey.vcvn6.vcvn9              0                       (Unspecified)
system.ruby.network.sankey.vcvn7.vcvn0              0                       (Unspecified)
system.ruby.network.sankey.vcvn7.vcvn1              0                       (Unspecified)
system.ruby.network.sankey.vcvn7.vcvn10             0                       (Unspecified)
system.ruby.network.sankey.vcvn7.vcvn11             0                       (Unspecified)
system.ruby.network.sankey.vcvn7.vcvn12             0                       (Unspecified)
system.ruby.network.sankey.vcvn7.vcvn13             0                       (Unspecified)
system.ruby.network.sankey.vcvn7.vcvn14             0                       (Unspecified)
system.ruby.network.sankey.vcvn7.vcvn15             0                       (Unspecified)
system.ruby.network.sankey.vcvn7.vcvn16             0                       (Unspecified)
system.ruby.network.sankey.vcvn7.vcvn17             0                       (Unspecified)
system.ruby.network.sankey.vcvn7.vcvn2              0                       (Unspecified)
system.ruby.network.sankey.vcvn7.vcvn3              0                       (Unspecified)
system.ruby.network.sankey.vcvn7.vcvn4              0                       (Unspecified)
system.ruby.network.sankey.vcvn7.vcvn5              0                       (Unspecified)
system.ruby.network.sankey.vcvn7.vcvn6              0                       (Unspecified)
system.ruby.network.sankey.vcvn7.vcvn7              0                       (Unspecified)
system.ruby.network.sankey.vcvn7.vcvn8              0                       (Unspecified)
system.ruby.network.sankey.vcvn7.vcvn9              0                       (Unspecified)
system.ruby.network.sankey.vcvn8.vcvn0              0                       (Unspecified)
system.ruby.network.sankey.vcvn8.vcvn1              0                       (Unspecified)
system.ruby.network.sankey.vcvn8.vcvn10             0                       (Unspecified)
system.ruby.network.sankey.vcvn8.vcvn11             0                       (Unspecified)
system.ruby.network.sankey.vcvn8.vcvn12             0                       (Unspecified)
system.ruby.network.sankey.vcvn8.vcvn13             0                       (Unspecified)
system.ruby.network.sankey.vcvn8.vcvn14             0                       (Unspecified)
system.ruby.network.sankey.vcvn8.vcvn15             0                       (Unspecified)
system.ruby.network.sankey.vcvn8.vcvn16             0                       (Unspecified)
system.ruby.network.sankey.vcvn8.vcvn17             0                       (Unspecified)
system.ruby.network.sankey.vcvn8.vcvn2              0                       (Unspecified)
system.ruby.network.sankey.vcvn8.vcvn3              0                       (Unspecified)
system.ruby.network.sankey.vcvn8.vcvn4              0                       (Unspecified)
system.ruby.network.sankey.vcvn8.vcvn5              0                       (Unspecified)
system.ruby.network.sankey.vcvn8.vcvn6              0                       (Unspecified)
system.ruby.network.sankey.vcvn8.vcvn7              0                       (Unspecified)
system.ruby.network.sankey.vcvn8.vcvn8              0                       (Unspecified)
system.ruby.network.sankey.vcvn8.vcvn9              0                       (Unspecified)
system.ruby.network.sankey.vcvn9.vcvn0              0                       (Unspecified)
system.ruby.network.sankey.vcvn9.vcvn1              0                       (Unspecified)
system.ruby.network.sankey.vcvn9.vcvn10             0                       (Unspecified)
system.ruby.network.sankey.vcvn9.vcvn11             0                       (Unspecified)
system.ruby.network.sankey.vcvn9.vcvn12             0                       (Unspecified)
system.ruby.network.sankey.vcvn9.vcvn13             0                       (Unspecified)
system.ruby.network.sankey.vcvn9.vcvn14             0                       (Unspecified)
system.ruby.network.sankey.vcvn9.vcvn15             0                       (Unspecified)
system.ruby.network.sankey.vcvn9.vcvn16             0                       (Unspecified)
system.ruby.network.sankey.vcvn9.vcvn17             0                       (Unspecified)
system.ruby.network.sankey.vcvn9.vcvn2              0                       (Unspecified)
system.ruby.network.sankey.vcvn9.vcvn3              0                       (Unspecified)
system.ruby.network.sankey.vcvn9.vcvn4              0                       (Unspecified)
system.ruby.network.sankey.vcvn9.vcvn5              0                       (Unspecified)
system.ruby.network.sankey.vcvn9.vcvn6              0                       (Unspecified)
system.ruby.network.sankey.vcvn9.vcvn7              0                       (Unspecified)
system.ruby.network.sankey.vcvn9.vcvn8              0                       (Unspecified)
system.ruby.network.sankey.vcvn9.vcvn9              0                       (Unspecified)

---------- End Simulation Statistics   ----------
