gem5 Simulator System.  https://www.gem5.org
gem5 is copyrighted software; use the --copyright option for details.

gem5 version 22.0.0.2
gem5 compiled Jun 17 2023 14:31:12
gem5 started Nov 18 2023 15:52:59
gem5 executing on mnemosyne24.ecn.purdue.edu, pid 16248
command line: ./build/Garnet_standalone/gem5.fast -d ./synth_outputs/simple/2b/mixed/nndbt_none_2_6_40cpus_4xdirs_4.0GHz/mem/ns_m_scop/0_165/ configs/auto_top/auto_top_synth.py --topology EscapeVirtualNetworks --noi_routers 20 --sim-cycles 2147483647 --injectionrate 0.165 --noc_clk 4.0GHz --sys-clock 4.0GHz --ruby-clock 4.0GHz --noi_clk 3.0GHz --router_map_file configs/topologies/paper_solutions/ns_m_scop.map --flat_vn_map_file configs/topologies/vn_maps_ndbt/ns_m_scop_nndbt_none_2vns.vn --flat_nr_map_file configs/topologies/nr_list_ndbt/ns_m_scop_nndbt.nrl --ruby --mem_or_coh mem --mem-size 320000000 --num-dirs 64 --num-cpus 40 --network garnet --mem-type SimpleMemory --routing-algorithm 2 --use_escape_vns --synth_traffic --vcs-per-vnet 6 --evn_deadlock_partition 4 --evn_n_deadlock_free 1 --evn_min_n_deadlock_free 2

info: Standard input is not a terminal, disabling listeners.
ingesting configs/topologies/vn_maps_ndbt/ns_m_scop_nndbt_none_2vns.vn
cpus(40)=[<m5.objects.GarnetSyntheticTraffic.GarnetSyntheticTraffic object at 0x7f0f1fcaa0f0>, <m5.objects.GarnetSyntheticTraffic.GarnetSyntheticTraffic object at 0x7f0f1fcaadd8>, <m5.objects.GarnetSyntheticTraffic.GarnetSyntheticTraffic object at 0x7f0f1f8260f0>, <m5.objects.GarnetSyntheticTraffic.GarnetSyntheticTraffic object at 0x7f0f1f8263c8>, <m5.objects.GarnetSyntheticTraffic.GarnetSyntheticTraffic object at 0x7f0f1f8266a0>, <m5.objects.GarnetSyntheticTraffic.GarnetSyntheticTraffic object at 0x7f0f1f826978>, <m5.objects.GarnetSyntheticTraffic.GarnetSyntheticTraffic object at 0x7f0f1f826c50>, <m5.objects.GarnetSyntheticTraffic.GarnetSyntheticTraffic object at 0x7f0f1f826f28>, <m5.objects.GarnetSyntheticTraffic.GarnetSyntheticTraffic object at 0x7f0f1f82f240>, <m5.objects.GarnetSyntheticTraffic.GarnetSyntheticTraffic object at 0x7f0f1f82f518>, <m5.objects.GarnetSyntheticTraffic.GarnetSyntheticTraffic object at 0x7f0f1f82f7f0>, <m5.objects.GarnetSyntheticTraffic.GarnetSyntheticTraffic object at 0x7f0f1f82fac8>, <m5.objects.GarnetSyntheticTraffic.GarnetSyntheticTraffic object at 0x7f0f1fcaa7b8>, <m5.objects.GarnetSyntheticTraffic.GarnetSyntheticTraffic object at 0x7f0f1fc9ae48>, <m5.objects.GarnetSyntheticTraffic.GarnetSyntheticTraffic object at 0x7f0f1fca4668>, <m5.objects.GarnetSyntheticTraffic.GarnetSyntheticTraffic object at 0x7f0f1fca4cc0>, <m5.objects.GarnetSyntheticTraffic.GarnetSyntheticTraffic object at 0x7f0f1f82fd30>, <m5.objects.GarnetSyntheticTraffic.GarnetSyntheticTraffic object at 0x7f0f1f83b048>, <m5.objects.GarnetSyntheticTraffic.GarnetSyntheticTraffic object at 0x7f0f1f83b320>, <m5.objects.GarnetSyntheticTraffic.GarnetSyntheticTraffic object at 0x7f0f1f83b5f8>, <m5.objects.GarnetSyntheticTraffic.GarnetSyntheticTraffic object at 0x7f0f1f83b8d0>, <m5.objects.GarnetSyntheticTraffic.GarnetSyntheticTraffic object at 0x7f0f1f83bba8>, <m5.objects.GarnetSyntheticTraffic.GarnetSyntheticTraffic object at 0x7f0f1f83be80>, <m5.objects.GarnetSyntheticTraffic.GarnetSyntheticTraffic object at 0x7f0f1f842198>, <m5.objects.GarnetSyntheticTraffic.GarnetSyntheticTraffic object at 0x7f0f1f842470>, <m5.objects.GarnetSyntheticTraffic.GarnetSyntheticTraffic object at 0x7f0f1f842748>, <m5.objects.GarnetSyntheticTraffic.GarnetSyntheticTraffic object at 0x7f0f1f842a20>, <m5.objects.GarnetSyntheticTraffic.GarnetSyntheticTraffic object at 0x7f0f1f842cf8>, <m5.objects.GarnetSyntheticTraffic.GarnetSyntheticTraffic object at 0x7f0f1f842fd0>, <m5.objects.GarnetSyntheticTraffic.GarnetSyntheticTraffic object at 0x7f0f1f84a2e8>, <m5.objects.GarnetSyntheticTraffic.GarnetSyntheticTraffic object at 0x7f0f1f84a5c0>, <m5.objects.GarnetSyntheticTraffic.GarnetSyntheticTraffic object at 0x7f0f1f84a898>, <m5.objects.GarnetSyntheticTraffic.GarnetSyntheticTraffic object at 0x7f0f1f84ab70>, <m5.objects.GarnetSyntheticTraffic.GarnetSyntheticTraffic object at 0x7f0f1f84ae48>, <m5.objects.GarnetSyntheticTraffic.GarnetSyntheticTraffic object at 0x7f0f1f853160>, <m5.objects.GarnetSyntheticTraffic.GarnetSyntheticTraffic object at 0x7f0f1f853438>, <m5.objects.GarnetSyntheticTraffic.GarnetSyntheticTraffic object at 0x7f0f1f853710>, <m5.objects.GarnetSyntheticTraffic.GarnetSyntheticTraffic object at 0x7f0f1f8539e8>, <m5.objects.GarnetSyntheticTraffic.GarnetSyntheticTraffic object at 0x7f0f1f853cc0>, <m5.objects.GarnetSyntheticTraffic.GarnetSyntheticTraffic object at 0x7f0f1f853f98>])
ingesting configs/topologies/nr_list_ndbt/ns_m_scop_nndbt.nrl
ingesting configs/topologies/vn_maps_ndbt/ns_m_scop_nndbt_none_2vns.vn
ext_cdc_required = True
