
---------- Begin Simulation Statistics ----------
simSeconds                                   0.002147                       # Number of seconds simulated (Second)
simTicks                                   2147483750                       # Number of ticks simulated (Tick)
finalTick                                  2147483750                       # Number of ticks from beginning of simulation (restored from checkpoints and never reset) (Tick)
simFreq                                  1000000000000                       # The number of ticks per simulated second ((Tick/Second))
hostSeconds                                   6706.41                       # Real time elapsed on the host (Second)
hostTickRate                                   320214                       # The number of ticks simulated per host second (ticks/s) ((Tick/Second))
hostMemory                                    3775520                       # Number of bytes of host memory used (Byte)
system.clk_domain.clock                           250                       # Clock period in ticks (Tick)
system.cpu0.power_state.pwrStateResidencyTicks::UNDEFINED   2147483750                       # Cumulative time (in ticks) in various power states (Tick)
system.cpu1.power_state.pwrStateResidencyTicks::UNDEFINED   2147483750                       # Cumulative time (in ticks) in various power states (Tick)
system.cpu10.power_state.pwrStateResidencyTicks::UNDEFINED   2147483750                       # Cumulative time (in ticks) in various power states (Tick)
system.cpu11.power_state.pwrStateResidencyTicks::UNDEFINED   2147483750                       # Cumulative time (in ticks) in various power states (Tick)
system.cpu12.power_state.pwrStateResidencyTicks::UNDEFINED   2147483750                       # Cumulative time (in ticks) in various power states (Tick)
system.cpu13.power_state.pwrStateResidencyTicks::UNDEFINED   2147483750                       # Cumulative time (in ticks) in various power states (Tick)
system.cpu14.power_state.pwrStateResidencyTicks::UNDEFINED   2147483750                       # Cumulative time (in ticks) in various power states (Tick)
system.cpu15.power_state.pwrStateResidencyTicks::UNDEFINED   2147483750                       # Cumulative time (in ticks) in various power states (Tick)
system.cpu16.power_state.pwrStateResidencyTicks::UNDEFINED   2147483750                       # Cumulative time (in ticks) in various power states (Tick)
system.cpu17.power_state.pwrStateResidencyTicks::UNDEFINED   2147483750                       # Cumulative time (in ticks) in various power states (Tick)
system.cpu18.power_state.pwrStateResidencyTicks::UNDEFINED   2147483750                       # Cumulative time (in ticks) in various power states (Tick)
system.cpu19.power_state.pwrStateResidencyTicks::UNDEFINED   2147483750                       # Cumulative time (in ticks) in various power states (Tick)
system.cpu2.power_state.pwrStateResidencyTicks::UNDEFINED   2147483750                       # Cumulative time (in ticks) in various power states (Tick)
system.cpu20.power_state.pwrStateResidencyTicks::UNDEFINED   2147483750                       # Cumulative time (in ticks) in various power states (Tick)
system.cpu21.power_state.pwrStateResidencyTicks::UNDEFINED   2147483750                       # Cumulative time (in ticks) in various power states (Tick)
system.cpu22.power_state.pwrStateResidencyTicks::UNDEFINED   2147483750                       # Cumulative time (in ticks) in various power states (Tick)
system.cpu23.power_state.pwrStateResidencyTicks::UNDEFINED   2147483750                       # Cumulative time (in ticks) in various power states (Tick)
system.cpu24.power_state.pwrStateResidencyTicks::UNDEFINED   2147483750                       # Cumulative time (in ticks) in various power states (Tick)
system.cpu25.power_state.pwrStateResidencyTicks::UNDEFINED   2147483750                       # Cumulative time (in ticks) in various power states (Tick)
system.cpu26.power_state.pwrStateResidencyTicks::UNDEFINED   2147483750                       # Cumulative time (in ticks) in various power states (Tick)
system.cpu27.power_state.pwrStateResidencyTicks::UNDEFINED   2147483750                       # Cumulative time (in ticks) in various power states (Tick)
system.cpu28.power_state.pwrStateResidencyTicks::UNDEFINED   2147483750                       # Cumulative time (in ticks) in various power states (Tick)
system.cpu29.power_state.pwrStateResidencyTicks::UNDEFINED   2147483750                       # Cumulative time (in ticks) in various power states (Tick)
system.cpu3.power_state.pwrStateResidencyTicks::UNDEFINED   2147483750                       # Cumulative time (in ticks) in various power states (Tick)
system.cpu30.power_state.pwrStateResidencyTicks::UNDEFINED   2147483750                       # Cumulative time (in ticks) in various power states (Tick)
system.cpu31.power_state.pwrStateResidencyTicks::UNDEFINED   2147483750                       # Cumulative time (in ticks) in various power states (Tick)
system.cpu32.power_state.pwrStateResidencyTicks::UNDEFINED   2147483750                       # Cumulative time (in ticks) in various power states (Tick)
system.cpu33.power_state.pwrStateResidencyTicks::UNDEFINED   2147483750                       # Cumulative time (in ticks) in various power states (Tick)
system.cpu34.power_state.pwrStateResidencyTicks::UNDEFINED   2147483750                       # Cumulative time (in ticks) in various power states (Tick)
system.cpu35.power_state.pwrStateResidencyTicks::UNDEFINED   2147483750                       # Cumulative time (in ticks) in various power states (Tick)
system.cpu36.power_state.pwrStateResidencyTicks::UNDEFINED   2147483750                       # Cumulative time (in ticks) in various power states (Tick)
system.cpu37.power_state.pwrStateResidencyTicks::UNDEFINED   2147483750                       # Cumulative time (in ticks) in various power states (Tick)
system.cpu38.power_state.pwrStateResidencyTicks::UNDEFINED   2147483750                       # Cumulative time (in ticks) in various power states (Tick)
system.cpu39.power_state.pwrStateResidencyTicks::UNDEFINED   2147483750                       # Cumulative time (in ticks) in various power states (Tick)
system.cpu4.power_state.pwrStateResidencyTicks::UNDEFINED   2147483750                       # Cumulative time (in ticks) in various power states (Tick)
system.cpu5.power_state.pwrStateResidencyTicks::UNDEFINED   2147483750                       # Cumulative time (in ticks) in various power states (Tick)
system.cpu6.power_state.pwrStateResidencyTicks::UNDEFINED   2147483750                       # Cumulative time (in ticks) in various power states (Tick)
system.cpu7.power_state.pwrStateResidencyTicks::UNDEFINED   2147483750                       # Cumulative time (in ticks) in various power states (Tick)
system.cpu8.power_state.pwrStateResidencyTicks::UNDEFINED   2147483750                       # Cumulative time (in ticks) in various power states (Tick)
system.cpu9.power_state.pwrStateResidencyTicks::UNDEFINED   2147483750                       # Cumulative time (in ticks) in various power states (Tick)
system.mem_ctrls0.power_state.pwrStateResidencyTicks::UNDEFINED   2147483750                       # Cumulative time (in ticks) in various power states (Tick)
system.mem_ctrls1.power_state.pwrStateResidencyTicks::UNDEFINED   2147483750                       # Cumulative time (in ticks) in various power states (Tick)
system.mem_ctrls10.power_state.pwrStateResidencyTicks::UNDEFINED   2147483750                       # Cumulative time (in ticks) in various power states (Tick)
system.mem_ctrls100.power_state.pwrStateResidencyTicks::UNDEFINED   2147483750                       # Cumulative time (in ticks) in various power states (Tick)
system.mem_ctrls101.power_state.pwrStateResidencyTicks::UNDEFINED   2147483750                       # Cumulative time (in ticks) in various power states (Tick)
system.mem_ctrls102.power_state.pwrStateResidencyTicks::UNDEFINED   2147483750                       # Cumulative time (in ticks) in various power states (Tick)
system.mem_ctrls103.power_state.pwrStateResidencyTicks::UNDEFINED   2147483750                       # Cumulative time (in ticks) in various power states (Tick)
system.mem_ctrls104.power_state.pwrStateResidencyTicks::UNDEFINED   2147483750                       # Cumulative time (in ticks) in various power states (Tick)
system.mem_ctrls105.power_state.pwrStateResidencyTicks::UNDEFINED   2147483750                       # Cumulative time (in ticks) in various power states (Tick)
system.mem_ctrls106.power_state.pwrStateResidencyTicks::UNDEFINED   2147483750                       # Cumulative time (in ticks) in various power states (Tick)
system.mem_ctrls107.power_state.pwrStateResidencyTicks::UNDEFINED   2147483750                       # Cumulative time (in ticks) in various power states (Tick)
system.mem_ctrls108.power_state.pwrStateResidencyTicks::UNDEFINED   2147483750                       # Cumulative time (in ticks) in various power states (Tick)
system.mem_ctrls109.power_state.pwrStateResidencyTicks::UNDEFINED   2147483750                       # Cumulative time (in ticks) in various power states (Tick)
system.mem_ctrls11.power_state.pwrStateResidencyTicks::UNDEFINED   2147483750                       # Cumulative time (in ticks) in various power states (Tick)
system.mem_ctrls110.power_state.pwrStateResidencyTicks::UNDEFINED   2147483750                       # Cumulative time (in ticks) in various power states (Tick)
system.mem_ctrls111.power_state.pwrStateResidencyTicks::UNDEFINED   2147483750                       # Cumulative time (in ticks) in various power states (Tick)
system.mem_ctrls112.power_state.pwrStateResidencyTicks::UNDEFINED   2147483750                       # Cumulative time (in ticks) in various power states (Tick)
system.mem_ctrls113.power_state.pwrStateResidencyTicks::UNDEFINED   2147483750                       # Cumulative time (in ticks) in various power states (Tick)
system.mem_ctrls114.power_state.pwrStateResidencyTicks::UNDEFINED   2147483750                       # Cumulative time (in ticks) in various power states (Tick)
system.mem_ctrls115.power_state.pwrStateResidencyTicks::UNDEFINED   2147483750                       # Cumulative time (in ticks) in various power states (Tick)
system.mem_ctrls116.power_state.pwrStateResidencyTicks::UNDEFINED   2147483750                       # Cumulative time (in ticks) in various power states (Tick)
system.mem_ctrls117.power_state.pwrStateResidencyTicks::UNDEFINED   2147483750                       # Cumulative time (in ticks) in various power states (Tick)
system.mem_ctrls118.power_state.pwrStateResidencyTicks::UNDEFINED   2147483750                       # Cumulative time (in ticks) in various power states (Tick)
system.mem_ctrls119.power_state.pwrStateResidencyTicks::UNDEFINED   2147483750                       # Cumulative time (in ticks) in various power states (Tick)
system.mem_ctrls12.power_state.pwrStateResidencyTicks::UNDEFINED   2147483750                       # Cumulative time (in ticks) in various power states (Tick)
system.mem_ctrls120.power_state.pwrStateResidencyTicks::UNDEFINED   2147483750                       # Cumulative time (in ticks) in various power states (Tick)
system.mem_ctrls121.power_state.pwrStateResidencyTicks::UNDEFINED   2147483750                       # Cumulative time (in ticks) in various power states (Tick)
system.mem_ctrls122.power_state.pwrStateResidencyTicks::UNDEFINED   2147483750                       # Cumulative time (in ticks) in various power states (Tick)
system.mem_ctrls123.power_state.pwrStateResidencyTicks::UNDEFINED   2147483750                       # Cumulative time (in ticks) in various power states (Tick)
system.mem_ctrls124.power_state.pwrStateResidencyTicks::UNDEFINED   2147483750                       # Cumulative time (in ticks) in various power states (Tick)
system.mem_ctrls125.power_state.pwrStateResidencyTicks::UNDEFINED   2147483750                       # Cumulative time (in ticks) in various power states (Tick)
system.mem_ctrls126.power_state.pwrStateResidencyTicks::UNDEFINED   2147483750                       # Cumulative time (in ticks) in various power states (Tick)
system.mem_ctrls127.power_state.pwrStateResidencyTicks::UNDEFINED   2147483750                       # Cumulative time (in ticks) in various power states (Tick)
system.mem_ctrls128.power_state.pwrStateResidencyTicks::UNDEFINED   2147483750                       # Cumulative time (in ticks) in various power states (Tick)
system.mem_ctrls129.power_state.pwrStateResidencyTicks::UNDEFINED   2147483750                       # Cumulative time (in ticks) in various power states (Tick)
system.mem_ctrls13.power_state.pwrStateResidencyTicks::UNDEFINED   2147483750                       # Cumulative time (in ticks) in various power states (Tick)
system.mem_ctrls130.power_state.pwrStateResidencyTicks::UNDEFINED   2147483750                       # Cumulative time (in ticks) in various power states (Tick)
system.mem_ctrls131.power_state.pwrStateResidencyTicks::UNDEFINED   2147483750                       # Cumulative time (in ticks) in various power states (Tick)
system.mem_ctrls132.power_state.pwrStateResidencyTicks::UNDEFINED   2147483750                       # Cumulative time (in ticks) in various power states (Tick)
system.mem_ctrls133.power_state.pwrStateResidencyTicks::UNDEFINED   2147483750                       # Cumulative time (in ticks) in various power states (Tick)
system.mem_ctrls134.power_state.pwrStateResidencyTicks::UNDEFINED   2147483750                       # Cumulative time (in ticks) in various power states (Tick)
system.mem_ctrls135.power_state.pwrStateResidencyTicks::UNDEFINED   2147483750                       # Cumulative time (in ticks) in various power states (Tick)
system.mem_ctrls136.power_state.pwrStateResidencyTicks::UNDEFINED   2147483750                       # Cumulative time (in ticks) in various power states (Tick)
system.mem_ctrls137.power_state.pwrStateResidencyTicks::UNDEFINED   2147483750                       # Cumulative time (in ticks) in various power states (Tick)
system.mem_ctrls138.power_state.pwrStateResidencyTicks::UNDEFINED   2147483750                       # Cumulative time (in ticks) in various power states (Tick)
system.mem_ctrls139.power_state.pwrStateResidencyTicks::UNDEFINED   2147483750                       # Cumulative time (in ticks) in various power states (Tick)
system.mem_ctrls14.power_state.pwrStateResidencyTicks::UNDEFINED   2147483750                       # Cumulative time (in ticks) in various power states (Tick)
system.mem_ctrls140.power_state.pwrStateResidencyTicks::UNDEFINED   2147483750                       # Cumulative time (in ticks) in various power states (Tick)
system.mem_ctrls141.power_state.pwrStateResidencyTicks::UNDEFINED   2147483750                       # Cumulative time (in ticks) in various power states (Tick)
system.mem_ctrls142.power_state.pwrStateResidencyTicks::UNDEFINED   2147483750                       # Cumulative time (in ticks) in various power states (Tick)
system.mem_ctrls143.power_state.pwrStateResidencyTicks::UNDEFINED   2147483750                       # Cumulative time (in ticks) in various power states (Tick)
system.mem_ctrls144.power_state.pwrStateResidencyTicks::UNDEFINED   2147483750                       # Cumulative time (in ticks) in various power states (Tick)
system.mem_ctrls145.power_state.pwrStateResidencyTicks::UNDEFINED   2147483750                       # Cumulative time (in ticks) in various power states (Tick)
system.mem_ctrls146.power_state.pwrStateResidencyTicks::UNDEFINED   2147483750                       # Cumulative time (in ticks) in various power states (Tick)
system.mem_ctrls147.power_state.pwrStateResidencyTicks::UNDEFINED   2147483750                       # Cumulative time (in ticks) in various power states (Tick)
system.mem_ctrls148.power_state.pwrStateResidencyTicks::UNDEFINED   2147483750                       # Cumulative time (in ticks) in various power states (Tick)
system.mem_ctrls149.power_state.pwrStateResidencyTicks::UNDEFINED   2147483750                       # Cumulative time (in ticks) in various power states (Tick)
system.mem_ctrls15.power_state.pwrStateResidencyTicks::UNDEFINED   2147483750                       # Cumulative time (in ticks) in various power states (Tick)
system.mem_ctrls150.power_state.pwrStateResidencyTicks::UNDEFINED   2147483750                       # Cumulative time (in ticks) in various power states (Tick)
system.mem_ctrls151.power_state.pwrStateResidencyTicks::UNDEFINED   2147483750                       # Cumulative time (in ticks) in various power states (Tick)
system.mem_ctrls152.power_state.pwrStateResidencyTicks::UNDEFINED   2147483750                       # Cumulative time (in ticks) in various power states (Tick)
system.mem_ctrls153.power_state.pwrStateResidencyTicks::UNDEFINED   2147483750                       # Cumulative time (in ticks) in various power states (Tick)
system.mem_ctrls154.power_state.pwrStateResidencyTicks::UNDEFINED   2147483750                       # Cumulative time (in ticks) in various power states (Tick)
system.mem_ctrls155.power_state.pwrStateResidencyTicks::UNDEFINED   2147483750                       # Cumulative time (in ticks) in various power states (Tick)
system.mem_ctrls156.power_state.pwrStateResidencyTicks::UNDEFINED   2147483750                       # Cumulative time (in ticks) in various power states (Tick)
system.mem_ctrls157.power_state.pwrStateResidencyTicks::UNDEFINED   2147483750                       # Cumulative time (in ticks) in various power states (Tick)
system.mem_ctrls158.power_state.pwrStateResidencyTicks::UNDEFINED   2147483750                       # Cumulative time (in ticks) in various power states (Tick)
system.mem_ctrls159.power_state.pwrStateResidencyTicks::UNDEFINED   2147483750                       # Cumulative time (in ticks) in various power states (Tick)
system.mem_ctrls16.power_state.pwrStateResidencyTicks::UNDEFINED   2147483750                       # Cumulative time (in ticks) in various power states (Tick)
system.mem_ctrls17.power_state.pwrStateResidencyTicks::UNDEFINED   2147483750                       # Cumulative time (in ticks) in various power states (Tick)
system.mem_ctrls18.power_state.pwrStateResidencyTicks::UNDEFINED   2147483750                       # Cumulative time (in ticks) in various power states (Tick)
system.mem_ctrls19.power_state.pwrStateResidencyTicks::UNDEFINED   2147483750                       # Cumulative time (in ticks) in various power states (Tick)
system.mem_ctrls2.power_state.pwrStateResidencyTicks::UNDEFINED   2147483750                       # Cumulative time (in ticks) in various power states (Tick)
system.mem_ctrls20.power_state.pwrStateResidencyTicks::UNDEFINED   2147483750                       # Cumulative time (in ticks) in various power states (Tick)
system.mem_ctrls21.power_state.pwrStateResidencyTicks::UNDEFINED   2147483750                       # Cumulative time (in ticks) in various power states (Tick)
system.mem_ctrls22.power_state.pwrStateResidencyTicks::UNDEFINED   2147483750                       # Cumulative time (in ticks) in various power states (Tick)
system.mem_ctrls23.power_state.pwrStateResidencyTicks::UNDEFINED   2147483750                       # Cumulative time (in ticks) in various power states (Tick)
system.mem_ctrls24.power_state.pwrStateResidencyTicks::UNDEFINED   2147483750                       # Cumulative time (in ticks) in various power states (Tick)
system.mem_ctrls25.power_state.pwrStateResidencyTicks::UNDEFINED   2147483750                       # Cumulative time (in ticks) in various power states (Tick)
system.mem_ctrls26.power_state.pwrStateResidencyTicks::UNDEFINED   2147483750                       # Cumulative time (in ticks) in various power states (Tick)
system.mem_ctrls27.power_state.pwrStateResidencyTicks::UNDEFINED   2147483750                       # Cumulative time (in ticks) in various power states (Tick)
system.mem_ctrls28.power_state.pwrStateResidencyTicks::UNDEFINED   2147483750                       # Cumulative time (in ticks) in various power states (Tick)
system.mem_ctrls29.power_state.pwrStateResidencyTicks::UNDEFINED   2147483750                       # Cumulative time (in ticks) in various power states (Tick)
system.mem_ctrls3.power_state.pwrStateResidencyTicks::UNDEFINED   2147483750                       # Cumulative time (in ticks) in various power states (Tick)
system.mem_ctrls30.power_state.pwrStateResidencyTicks::UNDEFINED   2147483750                       # Cumulative time (in ticks) in various power states (Tick)
system.mem_ctrls31.power_state.pwrStateResidencyTicks::UNDEFINED   2147483750                       # Cumulative time (in ticks) in various power states (Tick)
system.mem_ctrls32.power_state.pwrStateResidencyTicks::UNDEFINED   2147483750                       # Cumulative time (in ticks) in various power states (Tick)
system.mem_ctrls33.power_state.pwrStateResidencyTicks::UNDEFINED   2147483750                       # Cumulative time (in ticks) in various power states (Tick)
system.mem_ctrls34.power_state.pwrStateResidencyTicks::UNDEFINED   2147483750                       # Cumulative time (in ticks) in various power states (Tick)
system.mem_ctrls35.power_state.pwrStateResidencyTicks::UNDEFINED   2147483750                       # Cumulative time (in ticks) in various power states (Tick)
system.mem_ctrls36.power_state.pwrStateResidencyTicks::UNDEFINED   2147483750                       # Cumulative time (in ticks) in various power states (Tick)
system.mem_ctrls37.power_state.pwrStateResidencyTicks::UNDEFINED   2147483750                       # Cumulative time (in ticks) in various power states (Tick)
system.mem_ctrls38.power_state.pwrStateResidencyTicks::UNDEFINED   2147483750                       # Cumulative time (in ticks) in various power states (Tick)
system.mem_ctrls39.power_state.pwrStateResidencyTicks::UNDEFINED   2147483750                       # Cumulative time (in ticks) in various power states (Tick)
system.mem_ctrls4.power_state.pwrStateResidencyTicks::UNDEFINED   2147483750                       # Cumulative time (in ticks) in various power states (Tick)
system.mem_ctrls40.power_state.pwrStateResidencyTicks::UNDEFINED   2147483750                       # Cumulative time (in ticks) in various power states (Tick)
system.mem_ctrls41.power_state.pwrStateResidencyTicks::UNDEFINED   2147483750                       # Cumulative time (in ticks) in various power states (Tick)
system.mem_ctrls42.power_state.pwrStateResidencyTicks::UNDEFINED   2147483750                       # Cumulative time (in ticks) in various power states (Tick)
system.mem_ctrls43.power_state.pwrStateResidencyTicks::UNDEFINED   2147483750                       # Cumulative time (in ticks) in various power states (Tick)
system.mem_ctrls44.power_state.pwrStateResidencyTicks::UNDEFINED   2147483750                       # Cumulative time (in ticks) in various power states (Tick)
system.mem_ctrls45.power_state.pwrStateResidencyTicks::UNDEFINED   2147483750                       # Cumulative time (in ticks) in various power states (Tick)
system.mem_ctrls46.power_state.pwrStateResidencyTicks::UNDEFINED   2147483750                       # Cumulative time (in ticks) in various power states (Tick)
system.mem_ctrls47.power_state.pwrStateResidencyTicks::UNDEFINED   2147483750                       # Cumulative time (in ticks) in various power states (Tick)
system.mem_ctrls48.power_state.pwrStateResidencyTicks::UNDEFINED   2147483750                       # Cumulative time (in ticks) in various power states (Tick)
system.mem_ctrls49.power_state.pwrStateResidencyTicks::UNDEFINED   2147483750                       # Cumulative time (in ticks) in various power states (Tick)
system.mem_ctrls5.power_state.pwrStateResidencyTicks::UNDEFINED   2147483750                       # Cumulative time (in ticks) in various power states (Tick)
system.mem_ctrls50.power_state.pwrStateResidencyTicks::UNDEFINED   2147483750                       # Cumulative time (in ticks) in various power states (Tick)
system.mem_ctrls51.power_state.pwrStateResidencyTicks::UNDEFINED   2147483750                       # Cumulative time (in ticks) in various power states (Tick)
system.mem_ctrls52.power_state.pwrStateResidencyTicks::UNDEFINED   2147483750                       # Cumulative time (in ticks) in various power states (Tick)
system.mem_ctrls53.power_state.pwrStateResidencyTicks::UNDEFINED   2147483750                       # Cumulative time (in ticks) in various power states (Tick)
system.mem_ctrls54.power_state.pwrStateResidencyTicks::UNDEFINED   2147483750                       # Cumulative time (in ticks) in various power states (Tick)
system.mem_ctrls55.power_state.pwrStateResidencyTicks::UNDEFINED   2147483750                       # Cumulative time (in ticks) in various power states (Tick)
system.mem_ctrls56.power_state.pwrStateResidencyTicks::UNDEFINED   2147483750                       # Cumulative time (in ticks) in various power states (Tick)
system.mem_ctrls57.power_state.pwrStateResidencyTicks::UNDEFINED   2147483750                       # Cumulative time (in ticks) in various power states (Tick)
system.mem_ctrls58.power_state.pwrStateResidencyTicks::UNDEFINED   2147483750                       # Cumulative time (in ticks) in various power states (Tick)
system.mem_ctrls59.power_state.pwrStateResidencyTicks::UNDEFINED   2147483750                       # Cumulative time (in ticks) in various power states (Tick)
system.mem_ctrls6.power_state.pwrStateResidencyTicks::UNDEFINED   2147483750                       # Cumulative time (in ticks) in various power states (Tick)
system.mem_ctrls60.power_state.pwrStateResidencyTicks::UNDEFINED   2147483750                       # Cumulative time (in ticks) in various power states (Tick)
system.mem_ctrls61.power_state.pwrStateResidencyTicks::UNDEFINED   2147483750                       # Cumulative time (in ticks) in various power states (Tick)
system.mem_ctrls62.power_state.pwrStateResidencyTicks::UNDEFINED   2147483750                       # Cumulative time (in ticks) in various power states (Tick)
system.mem_ctrls63.power_state.pwrStateResidencyTicks::UNDEFINED   2147483750                       # Cumulative time (in ticks) in various power states (Tick)
system.mem_ctrls64.power_state.pwrStateResidencyTicks::UNDEFINED   2147483750                       # Cumulative time (in ticks) in various power states (Tick)
system.mem_ctrls65.power_state.pwrStateResidencyTicks::UNDEFINED   2147483750                       # Cumulative time (in ticks) in various power states (Tick)
system.mem_ctrls66.power_state.pwrStateResidencyTicks::UNDEFINED   2147483750                       # Cumulative time (in ticks) in various power states (Tick)
system.mem_ctrls67.power_state.pwrStateResidencyTicks::UNDEFINED   2147483750                       # Cumulative time (in ticks) in various power states (Tick)
system.mem_ctrls68.power_state.pwrStateResidencyTicks::UNDEFINED   2147483750                       # Cumulative time (in ticks) in various power states (Tick)
system.mem_ctrls69.power_state.pwrStateResidencyTicks::UNDEFINED   2147483750                       # Cumulative time (in ticks) in various power states (Tick)
system.mem_ctrls7.power_state.pwrStateResidencyTicks::UNDEFINED   2147483750                       # Cumulative time (in ticks) in various power states (Tick)
system.mem_ctrls70.power_state.pwrStateResidencyTicks::UNDEFINED   2147483750                       # Cumulative time (in ticks) in various power states (Tick)
system.mem_ctrls71.power_state.pwrStateResidencyTicks::UNDEFINED   2147483750                       # Cumulative time (in ticks) in various power states (Tick)
system.mem_ctrls72.power_state.pwrStateResidencyTicks::UNDEFINED   2147483750                       # Cumulative time (in ticks) in various power states (Tick)
system.mem_ctrls73.power_state.pwrStateResidencyTicks::UNDEFINED   2147483750                       # Cumulative time (in ticks) in various power states (Tick)
system.mem_ctrls74.power_state.pwrStateResidencyTicks::UNDEFINED   2147483750                       # Cumulative time (in ticks) in various power states (Tick)
system.mem_ctrls75.power_state.pwrStateResidencyTicks::UNDEFINED   2147483750                       # Cumulative time (in ticks) in various power states (Tick)
system.mem_ctrls76.power_state.pwrStateResidencyTicks::UNDEFINED   2147483750                       # Cumulative time (in ticks) in various power states (Tick)
system.mem_ctrls77.power_state.pwrStateResidencyTicks::UNDEFINED   2147483750                       # Cumulative time (in ticks) in various power states (Tick)
system.mem_ctrls78.power_state.pwrStateResidencyTicks::UNDEFINED   2147483750                       # Cumulative time (in ticks) in various power states (Tick)
system.mem_ctrls79.power_state.pwrStateResidencyTicks::UNDEFINED   2147483750                       # Cumulative time (in ticks) in various power states (Tick)
system.mem_ctrls8.power_state.pwrStateResidencyTicks::UNDEFINED   2147483750                       # Cumulative time (in ticks) in various power states (Tick)
system.mem_ctrls80.power_state.pwrStateResidencyTicks::UNDEFINED   2147483750                       # Cumulative time (in ticks) in various power states (Tick)
system.mem_ctrls81.power_state.pwrStateResidencyTicks::UNDEFINED   2147483750                       # Cumulative time (in ticks) in various power states (Tick)
system.mem_ctrls82.power_state.pwrStateResidencyTicks::UNDEFINED   2147483750                       # Cumulative time (in ticks) in various power states (Tick)
system.mem_ctrls83.power_state.pwrStateResidencyTicks::UNDEFINED   2147483750                       # Cumulative time (in ticks) in various power states (Tick)
system.mem_ctrls84.power_state.pwrStateResidencyTicks::UNDEFINED   2147483750                       # Cumulative time (in ticks) in various power states (Tick)
system.mem_ctrls85.power_state.pwrStateResidencyTicks::UNDEFINED   2147483750                       # Cumulative time (in ticks) in various power states (Tick)
system.mem_ctrls86.power_state.pwrStateResidencyTicks::UNDEFINED   2147483750                       # Cumulative time (in ticks) in various power states (Tick)
system.mem_ctrls87.power_state.pwrStateResidencyTicks::UNDEFINED   2147483750                       # Cumulative time (in ticks) in various power states (Tick)
system.mem_ctrls88.power_state.pwrStateResidencyTicks::UNDEFINED   2147483750                       # Cumulative time (in ticks) in various power states (Tick)
system.mem_ctrls89.power_state.pwrStateResidencyTicks::UNDEFINED   2147483750                       # Cumulative time (in ticks) in various power states (Tick)
system.mem_ctrls9.power_state.pwrStateResidencyTicks::UNDEFINED   2147483750                       # Cumulative time (in ticks) in various power states (Tick)
system.mem_ctrls90.power_state.pwrStateResidencyTicks::UNDEFINED   2147483750                       # Cumulative time (in ticks) in various power states (Tick)
system.mem_ctrls91.power_state.pwrStateResidencyTicks::UNDEFINED   2147483750                       # Cumulative time (in ticks) in various power states (Tick)
system.mem_ctrls92.power_state.pwrStateResidencyTicks::UNDEFINED   2147483750                       # Cumulative time (in ticks) in various power states (Tick)
system.mem_ctrls93.power_state.pwrStateResidencyTicks::UNDEFINED   2147483750                       # Cumulative time (in ticks) in various power states (Tick)
system.mem_ctrls94.power_state.pwrStateResidencyTicks::UNDEFINED   2147483750                       # Cumulative time (in ticks) in various power states (Tick)
system.mem_ctrls95.power_state.pwrStateResidencyTicks::UNDEFINED   2147483750                       # Cumulative time (in ticks) in various power states (Tick)
system.mem_ctrls96.power_state.pwrStateResidencyTicks::UNDEFINED   2147483750                       # Cumulative time (in ticks) in various power states (Tick)
system.mem_ctrls97.power_state.pwrStateResidencyTicks::UNDEFINED   2147483750                       # Cumulative time (in ticks) in various power states (Tick)
system.mem_ctrls98.power_state.pwrStateResidencyTicks::UNDEFINED   2147483750                       # Cumulative time (in ticks) in various power states (Tick)
system.mem_ctrls99.power_state.pwrStateResidencyTicks::UNDEFINED   2147483750                       # Cumulative time (in ticks) in various power states (Tick)
system.ruby.m_outstandReqHistSeqr::bucket_size            1                       (Unspecified)
system.ruby.m_outstandReqHistSeqr::max_bucket            9                       (Unspecified)
system.ruby.m_outstandReqHistSeqr::samples     46339027                       (Unspecified)
system.ruby.m_outstandReqHistSeqr::mean             1                       (Unspecified)
system.ruby.m_outstandReqHistSeqr::gmean            1                       (Unspecified)
system.ruby.m_outstandReqHistSeqr        |           0      0.00%      0.00% |    46339027    100.00%    100.00% |           0      0.00%    100.00% |           0      0.00%    100.00% |           0      0.00%    100.00% |           0      0.00%    100.00% |           0      0.00%    100.00% |           0      0.00%    100.00% |           0      0.00%    100.00% |           0      0.00%    100.00% (Unspecified)
system.ruby.m_outstandReqHistSeqr::total     46339027                       (Unspecified)
system.ruby.m_latencyHistSeqr::bucket_size            1                       (Unspecified)
system.ruby.m_latencyHistSeqr::max_bucket            9                       (Unspecified)
system.ruby.m_latencyHistSeqr::samples       46339025                       (Unspecified)
system.ruby.m_latencyHistSeqr::mean                 1                       (Unspecified)
system.ruby.m_latencyHistSeqr::gmean                1                       (Unspecified)
system.ruby.m_latencyHistSeqr            |           0      0.00%      0.00% |    46339025    100.00%    100.00% |           0      0.00%    100.00% |           0      0.00%    100.00% |           0      0.00%    100.00% |           0      0.00%    100.00% |           0      0.00%    100.00% |           0      0.00%    100.00% |           0      0.00%    100.00% |           0      0.00%    100.00% (Unspecified)
system.ruby.m_latencyHistSeqr::total         46339025                       (Unspecified)
system.ruby.m_hitLatencyHistSeqr::bucket_size            1                       (Unspecified)
system.ruby.m_hitLatencyHistSeqr::max_bucket            9                       (Unspecified)
system.ruby.m_hitLatencyHistSeqr::samples     46339025                       (Unspecified)
system.ruby.m_hitLatencyHistSeqr::mean              1                       (Unspecified)
system.ruby.m_hitLatencyHistSeqr::gmean             1                       (Unspecified)
system.ruby.m_hitLatencyHistSeqr         |           0      0.00%      0.00% |    46339025    100.00%    100.00% |           0      0.00%    100.00% |           0      0.00%    100.00% |           0      0.00%    100.00% |           0      0.00%    100.00% |           0      0.00%    100.00% |           0      0.00%    100.00% |           0      0.00%    100.00% |           0      0.00%    100.00% (Unspecified)
system.ruby.m_hitLatencyHistSeqr::total      46339025                       (Unspecified)
system.ruby.Directory_Controller.Receive_Request |      144035      0.62%      0.62% |      144711      0.62%      1.25% |      144825      0.63%      1.87% |      144876      0.63%      2.50% |      145368      0.63%      3.12% |      144781      0.62%      3.75% |      144820      0.63%      4.37% |      144895      0.63%      5.00% |      145329      0.63%      5.63% |      144682      0.62%      6.25% |      144694      0.62%      6.88% |      144562      0.62%      7.50% |      145072      0.63%      8.13% |      144657      0.62%      8.75% |      144478      0.62%      9.37% |      144279      0.62%     10.00% |      144777      0.62%     10.62% |      145049      0.63%     11.25% |      144846      0.63%     11.87% |      144918      0.63%     12.50% |      145403      0.63%     13.13% |      144980      0.63%     13.75% |      144897      0.63%     14.38% |      144206      0.62%     15.00% |      144494      0.62%     15.62% |      145326      0.63%     16.25% |      144364      0.62%     16.87% |      145035      0.63%     17.50% |      144990      0.63%     18.12% |      145642      0.63%     18.75% |      144713      0.62%     19.38% |      145133      0.63%     20.00% |      145517      0.63%     20.63% |      144812      0.62%     21.26% |      144869      0.63%     21.88% |      145027      0.63%     22.51% |      145070      0.63%     23.13% |      144431      0.62%     23.76% |      145172      0.63%     24.38% |      145124      0.63%     25.01% |      144715      0.62%     25.63% |      144848      0.63%     26.26% |      144173      0.62%     26.88% |      144791      0.62%     27.51% |      144250      0.62%     28.13% |      145140      0.63%     28.76% |      145025      0.63%     29.38% |      144693      0.62%     30.01% |      144538      0.62%     30.63% |      145095      0.63%     31.26% |      144843      0.63%     31.88% |      144911      0.63%     32.51% |      144838      0.63%     33.13% |      144742      0.62%     33.76% |      144265      0.62%     34.38% |      145076      0.63%     35.01% |      144372      0.62%     35.63% |      144690      0.62%     36.25% |      145040      0.63%     36.88% |      145149      0.63%     37.51% |      144977      0.63%     38.13% |      144167      0.62%     38.75% |      145118      0.63%     39.38% |      144965      0.63%     40.01% |      144524      0.62%     40.63% |      144927      0.63%     41.25% |      145095      0.63%     41.88% |      144820      0.63%     42.51% |      144480      0.62%     43.13% |      144563      0.62%     43.75% |      144439      0.62%     44.38% |      145258      0.63%     45.00% |      144533      0.62%     45.63% |      144882      0.63%     46.25% |      144632      0.62%     46.88% |      145587      0.63%     47.51% |      145167      0.63%     48.13% |      144208      0.62%     48.75% |      144401      0.62%     49.38% |      144473      0.62%     50.00% |      144607      0.62%     50.63% |      144106      0.62%     51.25% |      144387      0.62%     51.87% |      145019      0.63%     52.50% |      144296      0.62%     53.12% |      145243      0.63%     53.75% |      144666      0.62%     54.37% |      145166      0.63%     55.00% |      145405      0.63%     55.62% |      144157      0.62%     56.25% |      145204      0.63%     56.87% |      145338      0.63%     57.50% |      144552      0.62%     58.12% |      145389      0.63%     58.75% |      145556      0.63%     59.38% |      144784      0.62%     60.01% |      145119      0.63%     60.63% |      144785      0.62%     61.26% |      144816      0.63%     61.88% |      144937      0.63%     62.51% |      145492      0.63%     63.13% |      144396      0.62%     63.76% |      144814      0.63%     64.38% |      144518      0.62%     65.01% |      144483      0.62%     65.63% |      144673      0.62%     66.25% |      145137      0.63%     66.88% |      144569      0.62%     67.51% |      144746      0.62%     68.13% |      144452      0.62%     68.75% |      144668      0.62%     69.38% |      145225      0.63%     70.00% |      145347      0.63%     70.63% |      144642      0.62%     71.26% |      145136      0.63%     71.88% |      144802      0.62%     72.51% |      144959      0.63%     73.13% |      144255      0.62%     73.76% |      145283      0.63%     74.38% |      144299      0.62%     75.01% |      144126      0.62%     75.63% |      145037      0.63%     76.25% |      144504      0.62%     76.88% |      145107      0.63%     77.50% |      145163      0.63%     78.13% |      144663      0.62%     78.75% |      144414      0.62%     79.38% |      144879      0.63%     80.00% |      144881      0.63%     80.63% |      144758      0.62%     81.25% |      144313      0.62%     81.88% |      145009      0.63%     82.50% |      144715      0.62%     83.13% |      145339      0.63%     83.75% |      145341      0.63%     84.38% |      144947      0.63%     85.01% |      144176      0.62%     85.63% |      144573      0.62%     86.25% |      144686      0.62%     86.88% |      144927      0.63%     87.50% |      144558      0.62%     88.13% |      144722      0.62%     88.75% |      144810      0.62%     89.38% |      144846      0.63%     90.00% |      144237      0.62%     90.62% |      144704      0.62%     91.25% |      144943      0.63%     91.87% |      144412      0.62%     92.50% |      144660      0.62%     93.12% |      144806      0.62%     93.75% |      144700      0.62%     94.37% |      144726      0.62%     95.00% |      144715      0.62%     95.62% |      144876      0.63%     96.25% |      145074      0.63%     96.87% |      145273      0.63%     97.50% |      145154      0.63%     98.12% |      144685      0.62%     98.75% |      145123      0.63%     99.38% |      144667      0.62%    100.00% (Unspecified)
system.ruby.Directory_Controller.Receive_Request::total     23169946                       (Unspecified)
system.ruby.Directory_Controller.Receive_Response |      128289      0.63%      0.63% |      127913      0.62%      1.25% |      128678      0.63%      1.88% |      127769      0.62%      2.50% |      127851      0.62%      3.12% |      128232      0.63%      3.75% |      127962      0.62%      4.37% |      128549      0.63%      5.00% |      128321      0.63%      5.62% |      128110      0.62%      6.25% |      128175      0.62%      6.87% |      128413      0.63%      7.50% |      128389      0.63%      8.12% |      128020      0.62%      8.75% |      128076      0.62%      9.37% |      127577      0.62%      9.99% |      127668      0.62%     10.62% |      127465      0.62%     11.24% |      128187      0.62%     11.86% |      127482      0.62%     12.48% |      128219      0.62%     13.11% |      128405      0.63%     13.73% |      128126      0.62%     14.36% |      128543      0.63%     14.99% |      127933      0.62%     15.61% |      128025      0.62%     16.23% |      128214      0.62%     16.86% |      128393      0.63%     17.48% |      127851      0.62%     18.11% |      128143      0.62%     18.73% |      128438      0.63%     19.36% |      127929      0.62%     19.98% |      127708      0.62%     20.60% |      128962      0.63%     21.23% |      128628      0.63%     21.86% |      128236      0.63%     22.48% |      128391      0.63%     23.11% |      128395      0.63%     23.74% |      127878      0.62%     24.36% |      128147      0.62%     24.98% |      128148      0.62%     25.61% |      128443      0.63%     26.23% |      127948      0.62%     26.86% |      128018      0.62%     27.48% |      128383      0.63%     28.11% |      128556      0.63%     28.73% |      127911      0.62%     29.36% |      128740      0.63%     29.99% |      128476      0.63%     30.61% |      127892      0.62%     31.23% |      128283      0.63%     31.86% |      128150      0.62%     32.48% |      128118      0.62%     33.11% |      129083      0.63%     33.74% |      128283      0.63%     34.36% |      128233      0.63%     34.99% |      127796      0.62%     35.61% |      128123      0.62%     36.24% |      128579      0.63%     36.86% |      128633      0.63%     37.49% |      128290      0.63%     38.12% |      127963      0.62%     38.74% |      128332      0.63%     39.36% |      128462      0.63%     39.99% |      127965      0.62%     40.61% |      128058      0.62%     41.24% |      128552      0.63%     41.86% |      127874      0.62%     42.49% |      128243      0.63%     43.11% |      127904      0.62%     43.74% |      128055      0.62%     44.36% |      128357      0.63%     44.99% |      127753      0.62%     45.61% |      127249      0.62%     46.23% |      128458      0.63%     46.86% |      127969      0.62%     47.48% |      128245      0.63%     48.10% |      128551      0.63%     48.73% |      128098      0.62%     49.36% |      128320      0.63%     49.98% |      128194      0.62%     50.61% |      128896      0.63%     51.23% |      127956      0.62%     51.86% |      127789      0.62%     52.48% |      127995      0.62%     53.10% |      128090      0.62%     53.73% |      128552      0.63%     54.36% |      128438      0.63%     54.98% |      128165      0.62%     55.61% |      128667      0.63%     56.23% |      127667      0.62%     56.86% |      128164      0.62%     57.48% |      128185      0.62%     58.10% |      128435      0.63%     58.73% |      128112      0.62%     59.36% |      128249      0.63%     59.98% |      128169      0.62%     60.61% |      128036      0.62%     61.23% |      128590      0.63%     61.86% |      128647      0.63%     62.48% |      128383      0.63%     63.11% |      128230      0.63%     63.73% |      128479      0.63%     64.36% |      127984      0.62%     64.98% |      128171      0.62%     65.61% |      128806      0.63%     66.24% |      128506      0.63%     66.86% |      128055      0.62%     67.49% |      128211      0.62%     68.11% |      127959      0.62%     68.74% |      128038      0.62%     69.36% |      128412      0.63%     69.99% |      129220      0.63%     70.62% |      128840      0.63%     71.24% |      128725      0.63%     71.87% |      128383      0.63%     72.50% |      128610      0.63%     73.12% |      128342      0.63%     73.75% |      128209      0.62%     74.37% |      128100      0.62%     75.00% |      128533      0.63%     75.62% |      128171      0.62%     76.25% |      127931      0.62%     76.87% |      128668      0.63%     77.50% |      127991      0.62%     78.12% |      128183      0.62%     78.75% |      127850      0.62%     79.37% |      128542      0.63%     80.00% |      128134      0.62%     80.62% |      127763      0.62%     81.25% |      128164      0.62%     81.87% |      128105      0.62%     82.49% |      127653      0.62%     83.12% |      128137      0.62%     83.74% |      127908      0.62%     84.37% |      128138      0.62%     84.99% |      128827      0.63%     85.62% |      128145      0.62%     86.24% |      128216      0.62%     86.87% |      128268      0.63%     87.49% |      128191      0.62%     88.12% |      128027      0.62%     88.74% |      128685      0.63%     89.37% |      128207      0.62%     89.99% |      128302      0.63%     90.62% |      128487      0.63%     91.25% |      128023      0.62%     91.87% |      128842      0.63%     92.50% |      127779      0.62%     93.12% |      128356      0.63%     93.75% |      128000      0.62%     94.37% |      128345      0.63%     94.99% |      128220      0.62%     95.62% |      128260      0.63%     96.25% |      128542      0.63%     96.87% |      128500      0.63%     97.50% |      128111      0.62%     98.12% |      128176      0.62%     98.75% |      129126      0.63%     99.38% |      127904      0.62%    100.00% (Unspecified)
system.ruby.Directory_Controller.Receive_Response::total     20516253                       (Unspecified)
system.ruby.Directory_Controller.I.Receive_Request |      144035      0.62%      0.62% |      144711      0.62%      1.25% |      144825      0.63%      1.87% |      144876      0.63%      2.50% |      145368      0.63%      3.12% |      144781      0.62%      3.75% |      144820      0.63%      4.37% |      144895      0.63%      5.00% |      145329      0.63%      5.63% |      144682      0.62%      6.25% |      144694      0.62%      6.88% |      144562      0.62%      7.50% |      145072      0.63%      8.13% |      144657      0.62%      8.75% |      144478      0.62%      9.37% |      144279      0.62%     10.00% |      144777      0.62%     10.62% |      145049      0.63%     11.25% |      144846      0.63%     11.87% |      144918      0.63%     12.50% |      145403      0.63%     13.13% |      144980      0.63%     13.75% |      144897      0.63%     14.38% |      144206      0.62%     15.00% |      144494      0.62%     15.62% |      145326      0.63%     16.25% |      144364      0.62%     16.87% |      145035      0.63%     17.50% |      144990      0.63%     18.12% |      145642      0.63%     18.75% |      144713      0.62%     19.38% |      145133      0.63%     20.00% |      145517      0.63%     20.63% |      144812      0.62%     21.26% |      144869      0.63%     21.88% |      145027      0.63%     22.51% |      145070      0.63%     23.13% |      144431      0.62%     23.76% |      145172      0.63%     24.38% |      145124      0.63%     25.01% |      144715      0.62%     25.63% |      144848      0.63%     26.26% |      144173      0.62%     26.88% |      144791      0.62%     27.51% |      144250      0.62%     28.13% |      145140      0.63%     28.76% |      145025      0.63%     29.38% |      144693      0.62%     30.01% |      144538      0.62%     30.63% |      145095      0.63%     31.26% |      144843      0.63%     31.88% |      144911      0.63%     32.51% |      144838      0.63%     33.13% |      144742      0.62%     33.76% |      144265      0.62%     34.38% |      145076      0.63%     35.01% |      144372      0.62%     35.63% |      144690      0.62%     36.25% |      145040      0.63%     36.88% |      145149      0.63%     37.51% |      144977      0.63%     38.13% |      144167      0.62%     38.75% |      145118      0.63%     39.38% |      144965      0.63%     40.01% |      144524      0.62%     40.63% |      144927      0.63%     41.25% |      145095      0.63%     41.88% |      144820      0.63%     42.51% |      144480      0.62%     43.13% |      144563      0.62%     43.75% |      144439      0.62%     44.38% |      145258      0.63%     45.00% |      144533      0.62%     45.63% |      144882      0.63%     46.25% |      144632      0.62%     46.88% |      145587      0.63%     47.51% |      145167      0.63%     48.13% |      144208      0.62%     48.75% |      144401      0.62%     49.38% |      144473      0.62%     50.00% |      144607      0.62%     50.63% |      144106      0.62%     51.25% |      144387      0.62%     51.87% |      145019      0.63%     52.50% |      144296      0.62%     53.12% |      145243      0.63%     53.75% |      144666      0.62%     54.37% |      145166      0.63%     55.00% |      145405      0.63%     55.62% |      144157      0.62%     56.25% |      145204      0.63%     56.87% |      145338      0.63%     57.50% |      144552      0.62%     58.12% |      145389      0.63%     58.75% |      145556      0.63%     59.38% |      144784      0.62%     60.01% |      145119      0.63%     60.63% |      144785      0.62%     61.26% |      144816      0.63%     61.88% |      144937      0.63%     62.51% |      145492      0.63%     63.13% |      144396      0.62%     63.76% |      144814      0.63%     64.38% |      144518      0.62%     65.01% |      144483      0.62%     65.63% |      144673      0.62%     66.25% |      145137      0.63%     66.88% |      144569      0.62%     67.51% |      144746      0.62%     68.13% |      144452      0.62%     68.75% |      144668      0.62%     69.38% |      145225      0.63%     70.00% |      145347      0.63%     70.63% |      144642      0.62%     71.26% |      145136      0.63%     71.88% |      144802      0.62%     72.51% |      144959      0.63%     73.13% |      144255      0.62%     73.76% |      145283      0.63%     74.38% |      144299      0.62%     75.01% |      144126      0.62%     75.63% |      145037      0.63%     76.25% |      144504      0.62%     76.88% |      145107      0.63%     77.50% |      145163      0.63%     78.13% |      144663      0.62%     78.75% |      144414      0.62%     79.38% |      144879      0.63%     80.00% |      144881      0.63%     80.63% |      144758      0.62%     81.25% |      144313      0.62%     81.88% |      145009      0.63%     82.50% |      144715      0.62%     83.13% |      145339      0.63%     83.75% |      145341      0.63%     84.38% |      144947      0.63%     85.01% |      144176      0.62%     85.63% |      144573      0.62%     86.25% |      144686      0.62%     86.88% |      144927      0.63%     87.50% |      144558      0.62%     88.13% |      144722      0.62%     88.75% |      144810      0.62%     89.38% |      144846      0.63%     90.00% |      144237      0.62%     90.62% |      144704      0.62%     91.25% |      144943      0.63%     91.87% |      144412      0.62%     92.50% |      144660      0.62%     93.12% |      144806      0.62%     93.75% |      144700      0.62%     94.37% |      144726      0.62%     95.00% |      144715      0.62%     95.62% |      144876      0.63%     96.25% |      145074      0.63%     96.87% |      145273      0.63%     97.50% |      145154      0.63%     98.12% |      144685      0.62%     98.75% |      145123      0.63%     99.38% |      144667      0.62%    100.00% (Unspecified)
system.ruby.Directory_Controller.I.Receive_Request::total     23169946                       (Unspecified)
system.ruby.Directory_Controller.I.Receive_Response |      128289      0.63%      0.63% |      127913      0.62%      1.25% |      128678      0.63%      1.88% |      127769      0.62%      2.50% |      127851      0.62%      3.12% |      128232      0.63%      3.75% |      127962      0.62%      4.37% |      128549      0.63%      5.00% |      128321      0.63%      5.62% |      128110      0.62%      6.25% |      128175      0.62%      6.87% |      128413      0.63%      7.50% |      128389      0.63%      8.12% |      128020      0.62%      8.75% |      128076      0.62%      9.37% |      127577      0.62%      9.99% |      127668      0.62%     10.62% |      127465      0.62%     11.24% |      128187      0.62%     11.86% |      127482      0.62%     12.48% |      128219      0.62%     13.11% |      128405      0.63%     13.73% |      128126      0.62%     14.36% |      128543      0.63%     14.99% |      127933      0.62%     15.61% |      128025      0.62%     16.23% |      128214      0.62%     16.86% |      128393      0.63%     17.48% |      127851      0.62%     18.11% |      128143      0.62%     18.73% |      128438      0.63%     19.36% |      127929      0.62%     19.98% |      127708      0.62%     20.60% |      128962      0.63%     21.23% |      128628      0.63%     21.86% |      128236      0.63%     22.48% |      128391      0.63%     23.11% |      128395      0.63%     23.74% |      127878      0.62%     24.36% |      128147      0.62%     24.98% |      128148      0.62%     25.61% |      128443      0.63%     26.23% |      127948      0.62%     26.86% |      128018      0.62%     27.48% |      128383      0.63%     28.11% |      128556      0.63%     28.73% |      127911      0.62%     29.36% |      128740      0.63%     29.99% |      128476      0.63%     30.61% |      127892      0.62%     31.23% |      128283      0.63%     31.86% |      128150      0.62%     32.48% |      128118      0.62%     33.11% |      129083      0.63%     33.74% |      128283      0.63%     34.36% |      128233      0.63%     34.99% |      127796      0.62%     35.61% |      128123      0.62%     36.24% |      128579      0.63%     36.86% |      128633      0.63%     37.49% |      128290      0.63%     38.12% |      127963      0.62%     38.74% |      128332      0.63%     39.36% |      128462      0.63%     39.99% |      127965      0.62%     40.61% |      128058      0.62%     41.24% |      128552      0.63%     41.86% |      127874      0.62%     42.49% |      128243      0.63%     43.11% |      127904      0.62%     43.74% |      128055      0.62%     44.36% |      128357      0.63%     44.99% |      127753      0.62%     45.61% |      127249      0.62%     46.23% |      128458      0.63%     46.86% |      127969      0.62%     47.48% |      128245      0.63%     48.10% |      128551      0.63%     48.73% |      128098      0.62%     49.36% |      128320      0.63%     49.98% |      128194      0.62%     50.61% |      128896      0.63%     51.23% |      127956      0.62%     51.86% |      127789      0.62%     52.48% |      127995      0.62%     53.10% |      128090      0.62%     53.73% |      128552      0.63%     54.36% |      128438      0.63%     54.98% |      128165      0.62%     55.61% |      128667      0.63%     56.23% |      127667      0.62%     56.86% |      128164      0.62%     57.48% |      128185      0.62%     58.10% |      128435      0.63%     58.73% |      128112      0.62%     59.36% |      128249      0.63%     59.98% |      128169      0.62%     60.61% |      128036      0.62%     61.23% |      128590      0.63%     61.86% |      128647      0.63%     62.48% |      128383      0.63%     63.11% |      128230      0.63%     63.73% |      128479      0.63%     64.36% |      127984      0.62%     64.98% |      128171      0.62%     65.61% |      128806      0.63%     66.24% |      128506      0.63%     66.86% |      128055      0.62%     67.49% |      128211      0.62%     68.11% |      127959      0.62%     68.74% |      128038      0.62%     69.36% |      128412      0.63%     69.99% |      129220      0.63%     70.62% |      128840      0.63%     71.24% |      128725      0.63%     71.87% |      128383      0.63%     72.50% |      128610      0.63%     73.12% |      128342      0.63%     73.75% |      128209      0.62%     74.37% |      128100      0.62%     75.00% |      128533      0.63%     75.62% |      128171      0.62%     76.25% |      127931      0.62%     76.87% |      128668      0.63%     77.50% |      127991      0.62%     78.12% |      128183      0.62%     78.75% |      127850      0.62%     79.37% |      128542      0.63%     80.00% |      128134      0.62%     80.62% |      127763      0.62%     81.25% |      128164      0.62%     81.87% |      128105      0.62%     82.49% |      127653      0.62%     83.12% |      128137      0.62%     83.74% |      127908      0.62%     84.37% |      128138      0.62%     84.99% |      128827      0.63%     85.62% |      128145      0.62%     86.24% |      128216      0.62%     86.87% |      128268      0.63%     87.49% |      128191      0.62%     88.12% |      128027      0.62%     88.74% |      128685      0.63%     89.37% |      128207      0.62%     89.99% |      128302      0.63%     90.62% |      128487      0.63%     91.25% |      128023      0.62%     91.87% |      128842      0.63%     92.50% |      127779      0.62%     93.12% |      128356      0.63%     93.75% |      128000      0.62%     94.37% |      128345      0.63%     94.99% |      128220      0.62%     95.62% |      128260      0.63%     96.25% |      128542      0.63%     96.87% |      128500      0.63%     97.50% |      128111      0.62%     98.12% |      128176      0.62%     98.75% |      129126      0.63%     99.38% |      127904      0.62%    100.00% (Unspecified)
system.ruby.Directory_Controller.I.Receive_Response::total     20516253                       (Unspecified)
system.ruby.L1Cache_Controller.Request   |      579735      2.50%      2.50% |      579418      2.50%      5.00% |      577825      2.49%      7.50% |      578676      2.50%      9.99% |      578472      2.50%     12.49% |      579473      2.50%     14.99% |      580165      2.50%     17.50% |      578472      2.50%     19.99% |      579703      2.50%     22.49% |      579387      2.50%     24.99% |      578804      2.50%     27.49% |      578584      2.50%     29.99% |      578844      2.50%     32.49% |      578827      2.50%     34.99% |      580744      2.51%     37.49% |      579950      2.50%     40.00% |      579546      2.50%     42.50% |      579666      2.50%     45.00% |      578361      2.50%     47.50% |      578473      2.50%     49.99% |      579810      2.50%     52.49% |      577947      2.49%     54.99% |      580255      2.50%     57.49% |      579037      2.50%     59.99% |      579091      2.50%     62.49% |      579564      2.50%     64.99% |      577518      2.49%     67.49% |      580303      2.50%     69.99% |      579385      2.50%     72.49% |      578658      2.50%     74.99% |      580682      2.51%     77.49% |      578440      2.50%     79.99% |      578955      2.50%     82.49% |      579981      2.50%     84.99% |      579249      2.50%     87.49% |      580282      2.50%     90.00% |      579452      2.50%     92.50% |      579016      2.50%     95.00% |      579041      2.50%     97.50% |      580228      2.50%    100.00% (Unspecified)
system.ruby.L1Cache_Controller.Request::total     23170019                       (Unspecified)
system.ruby.L1Cache_Controller.Response  |      579353      2.50%      2.50% |      579971      2.50%      5.00% |      579538      2.50%      7.51% |      579897      2.50%     10.01% |      580464      2.51%     12.51% |      579490      2.50%     15.01% |      578439      2.50%     17.51% |      580297      2.50%     20.02% |      580525      2.51%     22.52% |      579850      2.50%     25.02% |      579913      2.50%     27.53% |      579292      2.50%     30.03% |      579399      2.50%     32.53% |      580053      2.50%     35.03% |      579317      2.50%     37.53% |      579185      2.50%     40.03% |      579568      2.50%     42.53% |      578256      2.50%     45.03% |      579788      2.50%     47.53% |      578879      2.50%     50.03% |      579882      2.50%     52.53% |      579935      2.50%     55.04% |      577772      2.49%     57.53% |      578360      2.50%     60.03% |      579854      2.50%     62.53% |      578249      2.50%     65.02% |      579531      2.50%     67.53% |      579440      2.50%     70.03% |      577963      2.49%     72.52% |      578462      2.50%     75.02% |      579653      2.50%     77.52% |      578746      2.50%     80.02% |      578184      2.50%     82.51% |      577236      2.49%     85.00% |      578354      2.50%     87.50% |      578300      2.50%     90.00% |      578976      2.50%     92.50% |      578550      2.50%     94.99% |      579941      2.50%     97.50% |      580144      2.50%    100.00% (Unspecified)
system.ruby.L1Cache_Controller.Response::total     23169006                       (Unspecified)
system.ruby.L1Cache_Controller.I.Request |      579735      2.50%      2.50% |      579418      2.50%      5.00% |      577825      2.49%      7.50% |      578676      2.50%      9.99% |      578472      2.50%     12.49% |      579473      2.50%     14.99% |      580165      2.50%     17.50% |      578472      2.50%     19.99% |      579703      2.50%     22.49% |      579387      2.50%     24.99% |      578804      2.50%     27.49% |      578584      2.50%     29.99% |      578844      2.50%     32.49% |      578827      2.50%     34.99% |      580744      2.51%     37.49% |      579950      2.50%     40.00% |      579546      2.50%     42.50% |      579666      2.50%     45.00% |      578361      2.50%     47.50% |      578473      2.50%     49.99% |      579810      2.50%     52.49% |      577947      2.49%     54.99% |      580255      2.50%     57.49% |      579037      2.50%     59.99% |      579091      2.50%     62.49% |      579564      2.50%     64.99% |      577518      2.49%     67.49% |      580303      2.50%     69.99% |      579385      2.50%     72.49% |      578658      2.50%     74.99% |      580682      2.51%     77.49% |      578440      2.50%     79.99% |      578955      2.50%     82.49% |      579981      2.50%     84.99% |      579249      2.50%     87.49% |      580282      2.50%     90.00% |      579452      2.50%     92.50% |      579016      2.50%     95.00% |      579041      2.50%     97.50% |      580228      2.50%    100.00% (Unspecified)
system.ruby.L1Cache_Controller.I.Request::total     23170019                       (Unspecified)
system.ruby.L1Cache_Controller.I.Response |      579353      2.50%      2.50% |      579971      2.50%      5.00% |      579538      2.50%      7.51% |      579897      2.50%     10.01% |      580464      2.51%     12.51% |      579490      2.50%     15.01% |      578439      2.50%     17.51% |      580297      2.50%     20.02% |      580525      2.51%     22.52% |      579850      2.50%     25.02% |      579913      2.50%     27.53% |      579292      2.50%     30.03% |      579399      2.50%     32.53% |      580053      2.50%     35.03% |      579317      2.50%     37.53% |      579185      2.50%     40.03% |      579568      2.50%     42.53% |      578256      2.50%     45.03% |      579788      2.50%     47.53% |      578879      2.50%     50.03% |      579882      2.50%     52.53% |      579935      2.50%     55.04% |      577772      2.49%     57.53% |      578360      2.50%     60.03% |      579854      2.50%     62.53% |      578249      2.50%     65.02% |      579531      2.50%     67.53% |      579440      2.50%     70.03% |      577963      2.49%     72.52% |      578462      2.50%     75.02% |      579653      2.50%     77.52% |      578746      2.50%     80.02% |      578184      2.50%     82.51% |      577236      2.49%     85.00% |      578354      2.50%     87.50% |      578300      2.50%     90.00% |      578976      2.50%     92.50% |      578550      2.50%     94.99% |      579941      2.50%     97.50% |      580144      2.50%    100.00% (Unspecified)
system.ruby.L1Cache_Controller.I.Response::total     23169006                       (Unspecified)
system.ruby.RequestType.LD.latency_hist_seqr::bucket_size            1                       (Unspecified)
system.ruby.RequestType.LD.latency_hist_seqr::max_bucket            9                       (Unspecified)
system.ruby.RequestType.LD.latency_hist_seqr::samples     23170019                       (Unspecified)
system.ruby.RequestType.LD.latency_hist_seqr::mean            1                       (Unspecified)
system.ruby.RequestType.LD.latency_hist_seqr::gmean            1                       (Unspecified)
system.ruby.RequestType.LD.latency_hist_seqr |           0      0.00%      0.00% |    23170019    100.00%    100.00% |           0      0.00%    100.00% |           0      0.00%    100.00% |           0      0.00%    100.00% |           0      0.00%    100.00% |           0      0.00%    100.00% |           0      0.00%    100.00% |           0      0.00%    100.00% |           0      0.00%    100.00% (Unspecified)
system.ruby.RequestType.LD.latency_hist_seqr::total     23170019                       (Unspecified)
system.ruby.RequestType.LD.hit_latency_hist_seqr::bucket_size            1                       (Unspecified)
system.ruby.RequestType.LD.hit_latency_hist_seqr::max_bucket            9                       (Unspecified)
system.ruby.RequestType.LD.hit_latency_hist_seqr::samples     23170019                       (Unspecified)
system.ruby.RequestType.LD.hit_latency_hist_seqr::mean            1                       (Unspecified)
system.ruby.RequestType.LD.hit_latency_hist_seqr::gmean            1                       (Unspecified)
system.ruby.RequestType.LD.hit_latency_hist_seqr |           0      0.00%      0.00% |    23170019    100.00%    100.00% |           0      0.00%    100.00% |           0      0.00%    100.00% |           0      0.00%    100.00% |           0      0.00%    100.00% |           0      0.00%    100.00% |           0      0.00%    100.00% |           0      0.00%    100.00% |           0      0.00%    100.00% (Unspecified)
system.ruby.RequestType.LD.hit_latency_hist_seqr::total     23170019                       (Unspecified)
system.ruby.RequestType.ST.latency_hist_seqr::bucket_size            1                       (Unspecified)
system.ruby.RequestType.ST.latency_hist_seqr::max_bucket            9                       (Unspecified)
system.ruby.RequestType.ST.latency_hist_seqr::samples     23169006                       (Unspecified)
system.ruby.RequestType.ST.latency_hist_seqr::mean            1                       (Unspecified)
system.ruby.RequestType.ST.latency_hist_seqr::gmean            1                       (Unspecified)
system.ruby.RequestType.ST.latency_hist_seqr |           0      0.00%      0.00% |    23169006    100.00%    100.00% |           0      0.00%    100.00% |           0      0.00%    100.00% |           0      0.00%    100.00% |           0      0.00%    100.00% |           0      0.00%    100.00% |           0      0.00%    100.00% |           0      0.00%    100.00% |           0      0.00%    100.00% (Unspecified)
system.ruby.RequestType.ST.latency_hist_seqr::total     23169006                       (Unspecified)
system.ruby.RequestType.ST.hit_latency_hist_seqr::bucket_size            1                       (Unspecified)
system.ruby.RequestType.ST.hit_latency_hist_seqr::max_bucket            9                       (Unspecified)
system.ruby.RequestType.ST.hit_latency_hist_seqr::samples     23169006                       (Unspecified)
system.ruby.RequestType.ST.hit_latency_hist_seqr::mean            1                       (Unspecified)
system.ruby.RequestType.ST.hit_latency_hist_seqr::gmean            1                       (Unspecified)
system.ruby.RequestType.ST.hit_latency_hist_seqr |           0      0.00%      0.00% |    23169006    100.00%    100.00% |           0      0.00%    100.00% |           0      0.00%    100.00% |           0      0.00%    100.00% |           0      0.00%    100.00% |           0      0.00%    100.00% |           0      0.00%    100.00% |           0      0.00%    100.00% |           0      0.00%    100.00% (Unspecified)
system.ruby.RequestType.ST.hit_latency_hist_seqr::total     23169006                       (Unspecified)
system.ruby.clk_domain.clock                      250                       # Clock period in ticks (Tick)
system.ruby.dir_cntrl0.power_state.pwrStateResidencyTicks::UNDEFINED   2147483750                       # Cumulative time (in ticks) in various power states (Tick)
system.ruby.dir_cntrl0.requestToDir.m_msg_count       144035                       # Number of messages passed the buffer (Count)
system.ruby.dir_cntrl0.requestToDir.m_buf_msgs     0.016768                       # Average number of messages in buffer ((Count/Tick))
system.ruby.dir_cntrl0.responseToDir.m_msg_count       128289                       # Number of messages passed the buffer (Count)
system.ruby.dir_cntrl0.responseToDir.m_buf_msgs     0.014935                       # Average number of messages in buffer ((Count/Tick))
system.ruby.dir_cntrl1.power_state.pwrStateResidencyTicks::UNDEFINED   2147483750                       # Cumulative time (in ticks) in various power states (Tick)
system.ruby.dir_cntrl1.requestToDir.m_msg_count       144711                       # Number of messages passed the buffer (Count)
system.ruby.dir_cntrl1.requestToDir.m_buf_msgs     0.016847                       # Average number of messages in buffer ((Count/Tick))
system.ruby.dir_cntrl1.responseToDir.m_msg_count       127913                       # Number of messages passed the buffer (Count)
system.ruby.dir_cntrl1.responseToDir.m_buf_msgs     0.014891                       # Average number of messages in buffer ((Count/Tick))
system.ruby.dir_cntrl10.power_state.pwrStateResidencyTicks::UNDEFINED   2147483750                       # Cumulative time (in ticks) in various power states (Tick)
system.ruby.dir_cntrl10.requestToDir.m_msg_count       144694                       # Number of messages passed the buffer (Count)
system.ruby.dir_cntrl10.requestToDir.m_buf_msgs     0.016845                       # Average number of messages in buffer ((Count/Tick))
system.ruby.dir_cntrl10.responseToDir.m_msg_count       128175                       # Number of messages passed the buffer (Count)
system.ruby.dir_cntrl10.responseToDir.m_buf_msgs     0.014922                       # Average number of messages in buffer ((Count/Tick))
system.ruby.dir_cntrl100.power_state.pwrStateResidencyTicks::UNDEFINED   2147483750                       # Cumulative time (in ticks) in various power states (Tick)
system.ruby.dir_cntrl100.requestToDir.m_msg_count       145492                       # Number of messages passed the buffer (Count)
system.ruby.dir_cntrl100.requestToDir.m_buf_msgs     0.016937                       # Average number of messages in buffer ((Count/Tick))
system.ruby.dir_cntrl100.responseToDir.m_msg_count       128383                       # Number of messages passed the buffer (Count)
system.ruby.dir_cntrl100.responseToDir.m_buf_msgs     0.014946                       # Average number of messages in buffer ((Count/Tick))
system.ruby.dir_cntrl101.power_state.pwrStateResidencyTicks::UNDEFINED   2147483750                       # Cumulative time (in ticks) in various power states (Tick)
system.ruby.dir_cntrl101.requestToDir.m_msg_count       144396                       # Number of messages passed the buffer (Count)
system.ruby.dir_cntrl101.requestToDir.m_buf_msgs     0.016810                       # Average number of messages in buffer ((Count/Tick))
system.ruby.dir_cntrl101.responseToDir.m_msg_count       128230                       # Number of messages passed the buffer (Count)
system.ruby.dir_cntrl101.responseToDir.m_buf_msgs     0.014928                       # Average number of messages in buffer ((Count/Tick))
system.ruby.dir_cntrl102.power_state.pwrStateResidencyTicks::UNDEFINED   2147483750                       # Cumulative time (in ticks) in various power states (Tick)
system.ruby.dir_cntrl102.requestToDir.m_msg_count       144814                       # Number of messages passed the buffer (Count)
system.ruby.dir_cntrl102.requestToDir.m_buf_msgs     0.016859                       # Average number of messages in buffer ((Count/Tick))
system.ruby.dir_cntrl102.responseToDir.m_msg_count       128479                       # Number of messages passed the buffer (Count)
system.ruby.dir_cntrl102.responseToDir.m_buf_msgs     0.014957                       # Average number of messages in buffer ((Count/Tick))
system.ruby.dir_cntrl103.power_state.pwrStateResidencyTicks::UNDEFINED   2147483750                       # Cumulative time (in ticks) in various power states (Tick)
system.ruby.dir_cntrl103.requestToDir.m_msg_count       144518                       # Number of messages passed the buffer (Count)
system.ruby.dir_cntrl103.requestToDir.m_buf_msgs     0.016824                       # Average number of messages in buffer ((Count/Tick))
system.ruby.dir_cntrl103.responseToDir.m_msg_count       127984                       # Number of messages passed the buffer (Count)
system.ruby.dir_cntrl103.responseToDir.m_buf_msgs     0.014899                       # Average number of messages in buffer ((Count/Tick))
system.ruby.dir_cntrl104.power_state.pwrStateResidencyTicks::UNDEFINED   2147483750                       # Cumulative time (in ticks) in various power states (Tick)
system.ruby.dir_cntrl104.requestToDir.m_msg_count       144483                       # Number of messages passed the buffer (Count)
system.ruby.dir_cntrl104.requestToDir.m_buf_msgs     0.016820                       # Average number of messages in buffer ((Count/Tick))
system.ruby.dir_cntrl104.responseToDir.m_msg_count       128171                       # Number of messages passed the buffer (Count)
system.ruby.dir_cntrl104.responseToDir.m_buf_msgs     0.014921                       # Average number of messages in buffer ((Count/Tick))
system.ruby.dir_cntrl105.power_state.pwrStateResidencyTicks::UNDEFINED   2147483750                       # Cumulative time (in ticks) in various power states (Tick)
system.ruby.dir_cntrl105.requestToDir.m_msg_count       144673                       # Number of messages passed the buffer (Count)
system.ruby.dir_cntrl105.requestToDir.m_buf_msgs     0.016842                       # Average number of messages in buffer ((Count/Tick))
system.ruby.dir_cntrl105.responseToDir.m_msg_count       128806                       # Number of messages passed the buffer (Count)
system.ruby.dir_cntrl105.responseToDir.m_buf_msgs     0.014995                       # Average number of messages in buffer ((Count/Tick))
system.ruby.dir_cntrl106.power_state.pwrStateResidencyTicks::UNDEFINED   2147483750                       # Cumulative time (in ticks) in various power states (Tick)
system.ruby.dir_cntrl106.requestToDir.m_msg_count       145137                       # Number of messages passed the buffer (Count)
system.ruby.dir_cntrl106.requestToDir.m_buf_msgs     0.016896                       # Average number of messages in buffer ((Count/Tick))
system.ruby.dir_cntrl106.responseToDir.m_msg_count       128506                       # Number of messages passed the buffer (Count)
system.ruby.dir_cntrl106.responseToDir.m_buf_msgs     0.014960                       # Average number of messages in buffer ((Count/Tick))
system.ruby.dir_cntrl107.power_state.pwrStateResidencyTicks::UNDEFINED   2147483750                       # Cumulative time (in ticks) in various power states (Tick)
system.ruby.dir_cntrl107.requestToDir.m_msg_count       144569                       # Number of messages passed the buffer (Count)
system.ruby.dir_cntrl107.requestToDir.m_buf_msgs     0.016830                       # Average number of messages in buffer ((Count/Tick))
system.ruby.dir_cntrl107.responseToDir.m_msg_count       128055                       # Number of messages passed the buffer (Count)
system.ruby.dir_cntrl107.responseToDir.m_buf_msgs     0.014908                       # Average number of messages in buffer ((Count/Tick))
system.ruby.dir_cntrl108.power_state.pwrStateResidencyTicks::UNDEFINED   2147483750                       # Cumulative time (in ticks) in various power states (Tick)
system.ruby.dir_cntrl108.requestToDir.m_msg_count       144746                       # Number of messages passed the buffer (Count)
system.ruby.dir_cntrl108.requestToDir.m_buf_msgs     0.016851                       # Average number of messages in buffer ((Count/Tick))
system.ruby.dir_cntrl108.responseToDir.m_msg_count       128211                       # Number of messages passed the buffer (Count)
system.ruby.dir_cntrl108.responseToDir.m_buf_msgs     0.014926                       # Average number of messages in buffer ((Count/Tick))
system.ruby.dir_cntrl109.power_state.pwrStateResidencyTicks::UNDEFINED   2147483750                       # Cumulative time (in ticks) in various power states (Tick)
system.ruby.dir_cntrl109.requestToDir.m_msg_count       144452                       # Number of messages passed the buffer (Count)
system.ruby.dir_cntrl109.requestToDir.m_buf_msgs     0.016816                       # Average number of messages in buffer ((Count/Tick))
system.ruby.dir_cntrl109.responseToDir.m_msg_count       127959                       # Number of messages passed the buffer (Count)
system.ruby.dir_cntrl109.responseToDir.m_buf_msgs     0.014896                       # Average number of messages in buffer ((Count/Tick))
system.ruby.dir_cntrl11.power_state.pwrStateResidencyTicks::UNDEFINED   2147483750                       # Cumulative time (in ticks) in various power states (Tick)
system.ruby.dir_cntrl11.requestToDir.m_msg_count       144562                       # Number of messages passed the buffer (Count)
system.ruby.dir_cntrl11.requestToDir.m_buf_msgs     0.016829                       # Average number of messages in buffer ((Count/Tick))
system.ruby.dir_cntrl11.responseToDir.m_msg_count       128413                       # Number of messages passed the buffer (Count)
[...]
system.ruby.network.sankey.vcvn13.vcvn5             0                       (Unspecified)
system.ruby.network.sankey.vcvn13.vcvn6             0                       (Unspecified)
system.ruby.network.sankey.vcvn13.vcvn7             0                       (Unspecified)
system.ruby.network.sankey.vcvn13.vcvn8             0                       (Unspecified)
system.ruby.network.sankey.vcvn13.vcvn9             0                       (Unspecified)
system.ruby.network.sankey.vcvn14.vcvn0             0                       (Unspecified)
system.ruby.network.sankey.vcvn14.vcvn1             0                       (Unspecified)
system.ruby.network.sankey.vcvn14.vcvn10            0                       (Unspecified)
system.ruby.network.sankey.vcvn14.vcvn11            0                       (Unspecified)
system.ruby.network.sankey.vcvn14.vcvn12     13093155                       (Unspecified)
system.ruby.network.sankey.vcvn14.vcvn13      3846158                       (Unspecified)
system.ruby.network.sankey.vcvn14.vcvn14       693590                       (Unspecified)
system.ruby.network.sankey.vcvn14.vcvn15        84590                       (Unspecified)
system.ruby.network.sankey.vcvn14.vcvn16      1189725                       (Unspecified)
system.ruby.network.sankey.vcvn14.vcvn17      1424660                       (Unspecified)
system.ruby.network.sankey.vcvn14.vcvn2             0                       (Unspecified)
system.ruby.network.sankey.vcvn14.vcvn3             0                       (Unspecified)
system.ruby.network.sankey.vcvn14.vcvn4             0                       (Unspecified)
system.ruby.network.sankey.vcvn14.vcvn5             0                       (Unspecified)
system.ruby.network.sankey.vcvn14.vcvn6             0                       (Unspecified)
system.ruby.network.sankey.vcvn14.vcvn7             0                       (Unspecified)
system.ruby.network.sankey.vcvn14.vcvn8             0                       (Unspecified)
system.ruby.network.sankey.vcvn14.vcvn9             0                       (Unspecified)
system.ruby.network.sankey.vcvn15.vcvn0             0                       (Unspecified)
system.ruby.network.sankey.vcvn15.vcvn1             0                       (Unspecified)
system.ruby.network.sankey.vcvn15.vcvn10            0                       (Unspecified)
system.ruby.network.sankey.vcvn15.vcvn11            0                       (Unspecified)
system.ruby.network.sankey.vcvn15.vcvn12     11673648                       (Unspecified)
system.ruby.network.sankey.vcvn15.vcvn13      3423022                       (Unspecified)
system.ruby.network.sankey.vcvn15.vcvn14       618610                       (Unspecified)
system.ruby.network.sankey.vcvn15.vcvn15        74385                       (Unspecified)
system.ruby.network.sankey.vcvn15.vcvn16      1120595                       (Unspecified)
system.ruby.network.sankey.vcvn15.vcvn17      1283615                       (Unspecified)
system.ruby.network.sankey.vcvn15.vcvn2             0                       (Unspecified)
system.ruby.network.sankey.vcvn15.vcvn3             0                       (Unspecified)
system.ruby.network.sankey.vcvn15.vcvn4             0                       (Unspecified)
system.ruby.network.sankey.vcvn15.vcvn5             0                       (Unspecified)
system.ruby.network.sankey.vcvn15.vcvn6             0                       (Unspecified)
system.ruby.network.sankey.vcvn15.vcvn7             0                       (Unspecified)
system.ruby.network.sankey.vcvn15.vcvn8             0                       (Unspecified)
system.ruby.network.sankey.vcvn15.vcvn9             0                       (Unspecified)
system.ruby.network.sankey.vcvn16.vcvn0             0                       (Unspecified)
system.ruby.network.sankey.vcvn16.vcvn1             0                       (Unspecified)
system.ruby.network.sankey.vcvn16.vcvn10            0                       (Unspecified)
system.ruby.network.sankey.vcvn16.vcvn11            0                       (Unspecified)
system.ruby.network.sankey.vcvn16.vcvn12            0                       (Unspecified)
system.ruby.network.sankey.vcvn16.vcvn13            0                       (Unspecified)
system.ruby.network.sankey.vcvn16.vcvn14            0                       (Unspecified)
system.ruby.network.sankey.vcvn16.vcvn15            0                       (Unspecified)
system.ruby.network.sankey.vcvn16.vcvn16      8790731                       (Unspecified)
system.ruby.network.sankey.vcvn16.vcvn17            0                       (Unspecified)
system.ruby.network.sankey.vcvn16.vcvn2             0                       (Unspecified)
system.ruby.network.sankey.vcvn16.vcvn3             0                       (Unspecified)
system.ruby.network.sankey.vcvn16.vcvn4             0                       (Unspecified)
system.ruby.network.sankey.vcvn16.vcvn5             0                       (Unspecified)
system.ruby.network.sankey.vcvn16.vcvn6             0                       (Unspecified)
system.ruby.network.sankey.vcvn16.vcvn7             0                       (Unspecified)
system.ruby.network.sankey.vcvn16.vcvn8             0                       (Unspecified)
system.ruby.network.sankey.vcvn16.vcvn9             0                       (Unspecified)
system.ruby.network.sankey.vcvn17.vcvn0             0                       (Unspecified)
system.ruby.network.sankey.vcvn17.vcvn1             0                       (Unspecified)
system.ruby.network.sankey.vcvn17.vcvn10            0                       (Unspecified)
system.ruby.network.sankey.vcvn17.vcvn11            0                       (Unspecified)
system.ruby.network.sankey.vcvn17.vcvn12            0                       (Unspecified)
system.ruby.network.sankey.vcvn17.vcvn13            0                       (Unspecified)
system.ruby.network.sankey.vcvn17.vcvn14            0                       (Unspecified)
system.ruby.network.sankey.vcvn17.vcvn15            0                       (Unspecified)
system.ruby.network.sankey.vcvn17.vcvn16            0                       (Unspecified)
system.ruby.network.sankey.vcvn17.vcvn17      4107589                       (Unspecified)
system.ruby.network.sankey.vcvn17.vcvn2             0                       (Unspecified)
system.ruby.network.sankey.vcvn17.vcvn3             0                       (Unspecified)
system.ruby.network.sankey.vcvn17.vcvn4             0                       (Unspecified)
system.ruby.network.sankey.vcvn17.vcvn5             0                       (Unspecified)
system.ruby.network.sankey.vcvn17.vcvn6             0                       (Unspecified)
system.ruby.network.sankey.vcvn17.vcvn7             0                       (Unspecified)
system.ruby.network.sankey.vcvn17.vcvn8             0                       (Unspecified)
system.ruby.network.sankey.vcvn17.vcvn9             0                       (Unspecified)
system.ruby.network.sankey.vcvn2.vcvn0        4052984                       (Unspecified)
system.ruby.network.sankey.vcvn2.vcvn1         341301                       (Unspecified)
system.ruby.network.sankey.vcvn2.vcvn10             0                       (Unspecified)
system.ruby.network.sankey.vcvn2.vcvn11             0                       (Unspecified)
system.ruby.network.sankey.vcvn2.vcvn12             0                       (Unspecified)
system.ruby.network.sankey.vcvn2.vcvn13             0                       (Unspecified)
system.ruby.network.sankey.vcvn2.vcvn14             0                       (Unspecified)
system.ruby.network.sankey.vcvn2.vcvn15             0                       (Unspecified)
system.ruby.network.sankey.vcvn2.vcvn16             0                       (Unspecified)
system.ruby.network.sankey.vcvn2.vcvn17             0                       (Unspecified)
system.ruby.network.sankey.vcvn2.vcvn2          14726                       (Unspecified)
system.ruby.network.sankey.vcvn2.vcvn3            386                       (Unspecified)
system.ruby.network.sankey.vcvn2.vcvn4           1724                       (Unspecified)
system.ruby.network.sankey.vcvn2.vcvn5           5775                       (Unspecified)
system.ruby.network.sankey.vcvn2.vcvn6              0                       (Unspecified)
system.ruby.network.sankey.vcvn2.vcvn7              0                       (Unspecified)
system.ruby.network.sankey.vcvn2.vcvn8              0                       (Unspecified)
system.ruby.network.sankey.vcvn2.vcvn9              0                       (Unspecified)
system.ruby.network.sankey.vcvn3.vcvn0        4050268                       (Unspecified)
system.ruby.network.sankey.vcvn3.vcvn1         341900                       (Unspecified)
system.ruby.network.sankey.vcvn3.vcvn10             0                       (Unspecified)
system.ruby.network.sankey.vcvn3.vcvn11             0                       (Unspecified)
system.ruby.network.sankey.vcvn3.vcvn12             0                       (Unspecified)
system.ruby.network.sankey.vcvn3.vcvn13             0                       (Unspecified)
system.ruby.network.sankey.vcvn3.vcvn14             0                       (Unspecified)
system.ruby.network.sankey.vcvn3.vcvn15             0                       (Unspecified)
system.ruby.network.sankey.vcvn3.vcvn16             0                       (Unspecified)
system.ruby.network.sankey.vcvn3.vcvn17             0                       (Unspecified)
system.ruby.network.sankey.vcvn3.vcvn2          14962                       (Unspecified)
system.ruby.network.sankey.vcvn3.vcvn3            386                       (Unspecified)
system.ruby.network.sankey.vcvn3.vcvn4           1925                       (Unspecified)
system.ruby.network.sankey.vcvn3.vcvn5           6304                       (Unspecified)
system.ruby.network.sankey.vcvn3.vcvn6              0                       (Unspecified)
system.ruby.network.sankey.vcvn3.vcvn7              0                       (Unspecified)
system.ruby.network.sankey.vcvn3.vcvn8              0                       (Unspecified)
system.ruby.network.sankey.vcvn3.vcvn9              0                       (Unspecified)
system.ruby.network.sankey.vcvn4.vcvn0              0                       (Unspecified)
system.ruby.network.sankey.vcvn4.vcvn1              0                       (Unspecified)
system.ruby.network.sankey.vcvn4.vcvn10             0                       (Unspecified)
system.ruby.network.sankey.vcvn4.vcvn11             0                       (Unspecified)
system.ruby.network.sankey.vcvn4.vcvn12             0                       (Unspecified)
system.ruby.network.sankey.vcvn4.vcvn13             0                       (Unspecified)
system.ruby.network.sankey.vcvn4.vcvn14             0                       (Unspecified)
system.ruby.network.sankey.vcvn4.vcvn15             0                       (Unspecified)
system.ruby.network.sankey.vcvn4.vcvn16             0                       (Unspecified)
system.ruby.network.sankey.vcvn4.vcvn17             0                       (Unspecified)
system.ruby.network.sankey.vcvn4.vcvn2              0                       (Unspecified)
system.ruby.network.sankey.vcvn4.vcvn3              0                       (Unspecified)
system.ruby.network.sankey.vcvn4.vcvn4        1267793                       (Unspecified)
system.ruby.network.sankey.vcvn4.vcvn5              0                       (Unspecified)
system.ruby.network.sankey.vcvn4.vcvn6              0                       (Unspecified)
system.ruby.network.sankey.vcvn4.vcvn7              0                       (Unspecified)
system.ruby.network.sankey.vcvn4.vcvn8              0                       (Unspecified)
system.ruby.network.sankey.vcvn4.vcvn9              0                       (Unspecified)
system.ruby.network.sankey.vcvn5.vcvn0              0                       (Unspecified)
system.ruby.network.sankey.vcvn5.vcvn1              0                       (Unspecified)
system.ruby.network.sankey.vcvn5.vcvn10             0                       (Unspecified)
system.ruby.network.sankey.vcvn5.vcvn11             0                       (Unspecified)
system.ruby.network.sankey.vcvn5.vcvn12             0                       (Unspecified)
system.ruby.network.sankey.vcvn5.vcvn13             0                       (Unspecified)
system.ruby.network.sankey.vcvn5.vcvn14             0                       (Unspecified)
system.ruby.network.sankey.vcvn5.vcvn15             0                       (Unspecified)
system.ruby.network.sankey.vcvn5.vcvn16             0                       (Unspecified)
system.ruby.network.sankey.vcvn5.vcvn17             0                       (Unspecified)
system.ruby.network.sankey.vcvn5.vcvn2              0                       (Unspecified)
system.ruby.network.sankey.vcvn5.vcvn3              0                       (Unspecified)
system.ruby.network.sankey.vcvn5.vcvn4              0                       (Unspecified)
system.ruby.network.sankey.vcvn5.vcvn5        4233897                       (Unspecified)
system.ruby.network.sankey.vcvn5.vcvn6              0                       (Unspecified)
system.ruby.network.sankey.vcvn5.vcvn7              0                       (Unspecified)
system.ruby.network.sankey.vcvn5.vcvn8              0                       (Unspecified)
system.ruby.network.sankey.vcvn5.vcvn9              0                       (Unspecified)
system.ruby.network.sankey.vcvn6.vcvn0              0                       (Unspecified)
system.ruby.network.sankey.vcvn6.vcvn1              0                       (Unspecified)
system.ruby.network.sankey.vcvn6.vcvn10             0                       (Unspecified)
system.ruby.network.sankey.vcvn6.vcvn11             0                       (Unspecified)
system.ruby.network.sankey.vcvn6.vcvn12             0                       (Unspecified)
system.ruby.network.sankey.vcvn6.vcvn13             0                       (Unspecified)
system.ruby.network.sankey.vcvn6.vcvn14             0                       (Unspecified)
system.ruby.network.sankey.vcvn6.vcvn15             0                       (Unspecified)
system.ruby.network.sankey.vcvn6.vcvn16             0                       (Unspecified)
system.ruby.network.sankey.vcvn6.vcvn17             0                       (Unspecified)
system.ruby.network.sankey.vcvn6.vcvn2              0                       (Unspecified)
system.ruby.network.sankey.vcvn6.vcvn3              0                       (Unspecified)
system.ruby.network.sankey.vcvn6.vcvn4              0                       (Unspecified)
system.ruby.network.sankey.vcvn6.vcvn5              0                       (Unspecified)
system.ruby.network.sankey.vcvn6.vcvn6              0                       (Unspecified)
system.ruby.network.sankey.vcvn6.vcvn7              0                       (Unspecified)
system.ruby.network.sankey.vcvn6.vcvn8              0                       (Unspecified)
system.ruby.network.sankey.vcvn6.vcvn9              0                       (Unspecified)
system.ruby.network.sankey.vcvn7.vcvn0              0                       (Unspecified)
system.ruby.network.sankey.vcvn7.vcvn1              0                       (Unspecified)
system.ruby.network.sankey.vcvn7.vcvn10             0                       (Unspecified)
system.ruby.network.sankey.vcvn7.vcvn11             0                       (Unspecified)
system.ruby.network.sankey.vcvn7.vcvn12             0                       (Unspecified)
system.ruby.network.sankey.vcvn7.vcvn13             0                       (Unspecified)
system.ruby.network.sankey.vcvn7.vcvn14             0                       (Unspecified)
system.ruby.network.sankey.vcvn7.vcvn15             0                       (Unspecified)
system.ruby.network.sankey.vcvn7.vcvn16             0                       (Unspecified)
system.ruby.network.sankey.vcvn7.vcvn17             0                       (Unspecified)
system.ruby.network.sankey.vcvn7.vcvn2              0                       (Unspecified)
system.ruby.network.sankey.vcvn7.vcvn3              0                       (Unspecified)
system.ruby.network.sankey.vcvn7.vcvn4              0                       (Unspecified)
system.ruby.network.sankey.vcvn7.vcvn5              0                       (Unspecified)
system.ruby.network.sankey.vcvn7.vcvn6              0                       (Unspecified)
system.ruby.network.sankey.vcvn7.vcvn7              0                       (Unspecified)
system.ruby.network.sankey.vcvn7.vcvn8              0                       (Unspecified)
system.ruby.network.sankey.vcvn7.vcvn9              0                       (Unspecified)
system.ruby.network.sankey.vcvn8.vcvn0              0                       (Unspecified)
system.ruby.network.sankey.vcvn8.vcvn1              0                       (Unspecified)
system.ruby.network.sankey.vcvn8.vcvn10             0                       (Unspecified)
system.ruby.network.sankey.vcvn8.vcvn11             0                       (Unspecified)
system.ruby.network.sankey.vcvn8.vcvn12             0                       (Unspecified)
system.ruby.network.sankey.vcvn8.vcvn13             0                       (Unspecified)
system.ruby.network.sankey.vcvn8.vcvn14             0                       (Unspecified)
system.ruby.network.sankey.vcvn8.vcvn15             0                       (Unspecified)
system.ruby.network.sankey.vcvn8.vcvn16             0                       (Unspecified)
system.ruby.network.sankey.vcvn8.vcvn17             0                       (Unspecified)
system.ruby.network.sankey.vcvn8.vcvn2              0                       (Unspecified)
system.ruby.network.sankey.vcvn8.vcvn3              0                       (Unspecified)
system.ruby.network.sankey.vcvn8.vcvn4              0                       (Unspecified)
system.ruby.network.sankey.vcvn8.vcvn5              0                       (Unspecified)
system.ruby.network.sankey.vcvn8.vcvn6              0                       (Unspecified)
system.ruby.network.sankey.vcvn8.vcvn7              0                       (Unspecified)
system.ruby.network.sankey.vcvn8.vcvn8              0                       (Unspecified)
system.ruby.network.sankey.vcvn8.vcvn9              0                       (Unspecified)
system.ruby.network.sankey.vcvn9.vcvn0              0                       (Unspecified)
system.ruby.network.sankey.vcvn9.vcvn1              0                       (Unspecified)
system.ruby.network.sankey.vcvn9.vcvn10             0                       (Unspecified)
system.ruby.network.sankey.vcvn9.vcvn11             0                       (Unspecified)
system.ruby.network.sankey.vcvn9.vcvn12             0                       (Unspecified)
system.ruby.network.sankey.vcvn9.vcvn13             0                       (Unspecified)
system.ruby.network.sankey.vcvn9.vcvn14             0                       (Unspecified)
system.ruby.network.sankey.vcvn9.vcvn15             0                       (Unspecified)
system.ruby.network.sankey.vcvn9.vcvn16             0                       (Unspecified)
system.ruby.network.sankey.vcvn9.vcvn17             0                       (Unspecified)
system.ruby.network.sankey.vcvn9.vcvn2              0                       (Unspecified)
system.ruby.network.sankey.vcvn9.vcvn3              0                       (Unspecified)
system.ruby.network.sankey.vcvn9.vcvn4              0                       (Unspecified)
system.ruby.network.sankey.vcvn9.vcvn5              0                       (Unspecified)
system.ruby.network.sankey.vcvn9.vcvn6              0                       (Unspecified)
system.ruby.network.sankey.vcvn9.vcvn7              0                       (Unspecified)
system.ruby.network.sankey.vcvn9.vcvn8              0                       (Unspecified)
system.ruby.network.sankey.vcvn9.vcvn9              0                       (Unspecified)

---------- End Simulation Statistics   ----------
