gem5 Simulator System.  https://www.gem5.org
gem5 is copyrighted software; use the --copyright option for details.

gem5 version 22.0.0.2
gem5 compiled Jun 17 2023 14:31:12
gem5 started Nov 18 2023 15:52:47
gem5 executing on mnemosyne24.ecn.purdue.edu, pid 16134
command line: ./build/Garnet_standalone/gem5.fast -d ./synth_outputs/simple/2b/mixed/nndbt_none_2_6_40cpus_4xdirs_4.0GHz/mem/ft_x/0_16/ configs/auto_top/auto_top_synth.py --topology EscapeVirtualNetworks --noi_routers 20 --sim-cycles 2147483647 --injectionrate 0.16 --noc_clk 4.0GHz --sys-clock 4.0GHz --ruby-clock 4.0GHz --noi_clk 3.0GHz --router_map_file configs/topologies/paper_solutions/ft_x.map --flat_vn_map_file configs/topologies/vn_maps_ndbt/ft_x_nndbt_none_2vns.vn --flat_nr_map_file configs/topologies/nr_list_ndbt/ft_x_nndbt.nrl --ruby --mem_or_coh mem --mem-size 320000000 --num-dirs 64 --num-cpus 40 --network garnet --mem-type SimpleMemory --routing-algorithm 2 --use_escape_vns --synth_traffic --vcs-per-vnet 6 --evn_deadlock_partition 4 --evn_n_deadlock_free 1 --evn_min_n_deadlock_free 2

info: Standard input is not a terminal, disabling listeners.
ingesting configs/topologies/vn_maps_ndbt/ft_x_nndbt_none_2vns.vn
cpus(40)=[<m5.objects.GarnetSyntheticTraffic.GarnetSyntheticTraffic object at 0x7f0979019080>, <m5.objects.GarnetSyntheticTraffic.GarnetSyntheticTraffic object at 0x7f0979019e48>, <m5.objects.GarnetSyntheticTraffic.GarnetSyntheticTraffic object at 0x7f0978b96160>, <m5.objects.GarnetSyntheticTraffic.GarnetSyntheticTraffic object at 0x7f0978b96438>, <m5.objects.GarnetSyntheticTraffic.GarnetSyntheticTraffic object at 0x7f0978b96710>, <m5.objects.GarnetSyntheticTraffic.GarnetSyntheticTraffic object at 0x7f0978b969e8>, <m5.objects.GarnetSyntheticTraffic.GarnetSyntheticTraffic object at 0x7f0978b96cc0>, <m5.objects.GarnetSyntheticTraffic.GarnetSyntheticTraffic object at 0x7f0978b96f98>, <m5.objects.GarnetSyntheticTraffic.GarnetSyntheticTraffic object at 0x7f0978b9f2b0>, <m5.objects.GarnetSyntheticTraffic.GarnetSyntheticTraffic object at 0x7f0978b9f588>, <m5.objects.GarnetSyntheticTraffic.GarnetSyntheticTraffic object at 0x7f0978b9f860>, <m5.objects.GarnetSyntheticTraffic.GarnetSyntheticTraffic object at 0x7f0978b9fb38>, <m5.objects.GarnetSyntheticTraffic.GarnetSyntheticTraffic object at 0x7f0979019898>, <m5.objects.GarnetSyntheticTraffic.GarnetSyntheticTraffic object at 0x7f0979008eb8>, <m5.objects.GarnetSyntheticTraffic.GarnetSyntheticTraffic object at 0x7f0979014710>, <m5.objects.GarnetSyntheticTraffic.GarnetSyntheticTraffic object at 0x7f0979014d68>, <m5.objects.GarnetSyntheticTraffic.GarnetSyntheticTraffic object at 0x7f0978b9fda0>, <m5.objects.GarnetSyntheticTraffic.GarnetSyntheticTraffic object at 0x7f0978bab0b8>, <m5.objects.GarnetSyntheticTraffic.GarnetSyntheticTraffic object at 0x7f0978bab390>, <m5.objects.GarnetSyntheticTraffic.GarnetSyntheticTraffic object at 0x7f0978bab668>, <m5.objects.GarnetSyntheticTraffic.GarnetSyntheticTraffic object at 0x7f0978bab940>, <m5.objects.GarnetSyntheticTraffic.GarnetSyntheticTraffic object at 0x7f0978babc18>, <m5.objects.GarnetSyntheticTraffic.GarnetSyntheticTraffic object at 0x7f0978babef0>, <m5.objects.GarnetSyntheticTraffic.GarnetSyntheticTraffic object at 0x7f0978bb2208>, <m5.objects.GarnetSyntheticTraffic.GarnetSyntheticTraffic object at 0x7f0978bb24e0>, <m5.objects.GarnetSyntheticTraffic.GarnetSyntheticTraffic object at 0x7f0978bb27b8>, <m5.objects.GarnetSyntheticTraffic.GarnetSyntheticTraffic object at 0x7f0978bb2a90>, <m5.objects.GarnetSyntheticTraffic.GarnetSyntheticTraffic object at 0x7f0978bb2d68>, <m5.objects.GarnetSyntheticTraffic.GarnetSyntheticTraffic object at 0x7f0978bba080>, <m5.objects.GarnetSyntheticTraffic.GarnetSyntheticTraffic object at 0x7f0978bba358>, <m5.objects.GarnetSyntheticTraffic.GarnetSyntheticTraffic object at 0x7f0978bba630>, <m5.objects.GarnetSyntheticTraffic.GarnetSyntheticTraffic object at 0x7f0978bba908>, <m5.objects.GarnetSyntheticTraffic.GarnetSyntheticTraffic object at 0x7f0978bbabe0>, <m5.objects.GarnetSyntheticTraffic.GarnetSyntheticTraffic object at 0x7f0978bbaeb8>, <m5.objects.GarnetSyntheticTraffic.GarnetSyntheticTraffic object at 0x7f0978bc31d0>, <m5.objects.GarnetSyntheticTraffic.GarnetSyntheticTraffic object at 0x7f0978bc34a8>, <m5.objects.GarnetSyntheticTraffic.GarnetSyntheticTraffic object at 0x7f0978bc3780>, <m5.objects.GarnetSyntheticTraffic.GarnetSyntheticTraffic object at 0x7f0978bc3a58>, <m5.objects.GarnetSyntheticTraffic.GarnetSyntheticTraffic object at 0x7f0978bc3d30>, <m5.objects.GarnetSyntheticTraffic.GarnetSyntheticTraffic object at 0x7f0978bca048>])
ingesting configs/topologies/nr_list_ndbt/ft_x_nndbt.nrl
ingesting configs/topologies/vn_maps_ndbt/ft_x_nndbt_none_2vns.vn
ext_cdc_required = True
