gem5 Simulator System.  https://www.gem5.org
gem5 is copyrighted software; use the --copyright option for details.

gem5 version 22.0.0.2
gem5 compiled Jun 17 2023 14:31:12
gem5 started Nov 18 2023 15:50:51
gem5 executing on mnemosyne14.ecn.purdue.edu, pid 24009
command line: ./build/Garnet_standalone/gem5.fast -d ./synth_outputs/simple/2b/mixed/mclb_hops_4_6_40cpus_4xdirs_4.0GHz/coh/kite_large/0_19/ configs/auto_top/auto_top_synth.py --topology EscapeVirtualNetworks --noi_routers 20 --sim-cycles 2147483647 --injectionrate 0.19 --noc_clk 4.0GHz --sys-clock 4.0GHz --ruby-clock 4.0GHz --noi_clk 2.7GHz --router_map_file configs/topologies/paper_solutions/kite_large.map --flat_vn_map_file configs/topologies/vn_maps_mclb/kite_large_mclb_hops_4vns.vn --flat_nr_map_file configs/topologies/nr_list_mclb/kite_large_mclb.nrl --ruby --mem_or_coh coh --mem-size 320000000 --num-dirs 160 --num-cpus 40 --network garnet --mem-type SimpleMemory --routing-algorithm 2 --use_escape_vns --synth_traffic --vcs-per-vnet 6 --evn_deadlock_partition 2 --evn_n_deadlock_free 1 --evn_min_n_deadlock_free 4

info: Standard input is not a terminal, disabling listeners.
ingesting configs/topologies/vn_maps_mclb/kite_large_mclb_hops_4vns.vn
cpus(40)=[<m5.objects.GarnetSyntheticTraffic.GarnetSyntheticTraffic object at 0x7f8e8bf690f0>, <m5.objects.GarnetSyntheticTraffic.GarnetSyntheticTraffic object at 0x7f8e8bf69dd8>, <m5.objects.GarnetSyntheticTraffic.GarnetSyntheticTraffic object at 0x7f8e8bae50f0>, <m5.objects.GarnetSyntheticTraffic.GarnetSyntheticTraffic object at 0x7f8e8bae53c8>, <m5.objects.GarnetSyntheticTraffic.GarnetSyntheticTraffic object at 0x7f8e8bae56a0>, <m5.objects.GarnetSyntheticTraffic.GarnetSyntheticTraffic object at 0x7f8e8bae5978>, <m5.objects.GarnetSyntheticTraffic.GarnetSyntheticTraffic object at 0x7f8e8bae5c50>, <m5.objects.GarnetSyntheticTraffic.GarnetSyntheticTraffic object at 0x7f8e8bae5f28>, <m5.objects.GarnetSyntheticTraffic.GarnetSyntheticTraffic object at 0x7f8e8baee240>, <m5.objects.GarnetSyntheticTraffic.GarnetSyntheticTraffic object at 0x7f8e8baee518>, <m5.objects.GarnetSyntheticTraffic.GarnetSyntheticTraffic object at 0x7f8e8baee7f0>, <m5.objects.GarnetSyntheticTraffic.GarnetSyntheticTraffic object at 0x7f8e8baeeac8>, <m5.objects.GarnetSyntheticTraffic.GarnetSyntheticTraffic object at 0x7f8e8bf697b8>, <m5.objects.GarnetSyntheticTraffic.GarnetSyntheticTraffic object at 0x7f8e8bf58e48>, <m5.objects.GarnetSyntheticTraffic.GarnetSyntheticTraffic object at 0x7f8e8bf63668>, <m5.objects.GarnetSyntheticTraffic.GarnetSyntheticTraffic object at 0x7f8e8bf63cc0>, <m5.objects.GarnetSyntheticTraffic.GarnetSyntheticTraffic object at 0x7f8e8baeed30>, <m5.objects.GarnetSyntheticTraffic.GarnetSyntheticTraffic object at 0x7f8e8bafa048>, <m5.objects.GarnetSyntheticTraffic.GarnetSyntheticTraffic object at 0x7f8e8bafa320>, <m5.objects.GarnetSyntheticTraffic.GarnetSyntheticTraffic object at 0x7f8e8bafa5f8>, <m5.objects.GarnetSyntheticTraffic.GarnetSyntheticTraffic object at 0x7f8e8bafa8d0>, <m5.objects.GarnetSyntheticTraffic.GarnetSyntheticTraffic object at 0x7f8e8bafaba8>, <m5.objects.GarnetSyntheticTraffic.GarnetSyntheticTraffic object at 0x7f8e8bafae80>, <m5.objects.GarnetSyntheticTraffic.GarnetSyntheticTraffic object at 0x7f8e8bb01198>, <m5.objects.GarnetSyntheticTraffic.GarnetSyntheticTraffic object at 0x7f8e8bb01470>, <m5.objects.GarnetSyntheticTraffic.GarnetSyntheticTraffic object at 0x7f8e8bb01748>, <m5.objects.GarnetSyntheticTraffic.GarnetSyntheticTraffic object at 0x7f8e8bb01a20>, <m5.objects.GarnetSyntheticTraffic.GarnetSyntheticTraffic object at 0x7f8e8bb01cf8>, <m5.objects.GarnetSyntheticTraffic.GarnetSyntheticTraffic object at 0x7f8e8bb01fd0>, <m5.objects.GarnetSyntheticTraffic.GarnetSyntheticTraffic object at 0x7f8e8bb092e8>, <m5.objects.GarnetSyntheticTraffic.GarnetSyntheticTraffic object at 0x7f8e8bb095c0>, <m5.objects.GarnetSyntheticTraffic.GarnetSyntheticTraffic object at 0x7f8e8bb09898>, <m5.objects.GarnetSyntheticTraffic.GarnetSyntheticTraffic object at 0x7f8e8bb09b70>, <m5.objects.GarnetSyntheticTraffic.GarnetSyntheticTraffic object at 0x7f8e8bb09e48>, <m5.objects.GarnetSyntheticTraffic.GarnetSyntheticTraffic object at 0x7f8e8bb12160>, <m5.objects.GarnetSyntheticTraffic.GarnetSyntheticTraffic object at 0x7f8e8bb12438>, <m5.objects.GarnetSyntheticTraffic.GarnetSyntheticTraffic object at 0x7f8e8bb12710>, <m5.objects.GarnetSyntheticTraffic.GarnetSyntheticTraffic object at 0x7f8e8bb129e8>, <m5.objects.GarnetSyntheticTraffic.GarnetSyntheticTraffic object at 0x7f8e8bb12cc0>, <m5.objects.GarnetSyntheticTraffic.GarnetSyntheticTraffic object at 0x7f8e8bb12f98>])
ingesting configs/topologies/nr_list_mclb/kite_large_mclb.nrl
ingesting configs/topologies/vn_maps_mclb/kite_large_mclb_hops_4vns.vn
ext_cdc_required = True
