
---------- Begin Simulation Statistics ----------
simSeconds                                   0.002147                       # Number of seconds simulated (Second)
simTicks                                   2147483750                       # Number of ticks simulated (Tick)
finalTick                                  2147483750                       # Number of ticks from beginning of simulation (restored from checkpoints and never reset) (Tick)
simFreq                                  1000000000000                       # The number of ticks per simulated second ((Tick/Second))
hostSeconds                                   2485.63                       # Real time elapsed on the host (Second)
hostTickRate                                   863959                       # The number of ticks simulated per host second (ticks/s) ((Tick/Second))
hostMemory                                     791324                       # Number of bytes of host memory used (Byte)
system.clk_domain.clock                           250                       # Clock period in ticks (Tick)
system.cpu0.power_state.pwrStateResidencyTicks::UNDEFINED   2147483750                       # Cumulative time (in ticks) in various power states (Tick)
system.cpu1.power_state.pwrStateResidencyTicks::UNDEFINED   2147483750                       # Cumulative time (in ticks) in various power states (Tick)
system.cpu10.power_state.pwrStateResidencyTicks::UNDEFINED   2147483750                       # Cumulative time (in ticks) in various power states (Tick)
system.cpu11.power_state.pwrStateResidencyTicks::UNDEFINED   2147483750                       # Cumulative time (in ticks) in various power states (Tick)
system.cpu12.power_state.pwrStateResidencyTicks::UNDEFINED   2147483750                       # Cumulative time (in ticks) in various power states (Tick)
system.cpu13.power_state.pwrStateResidencyTicks::UNDEFINED   2147483750                       # Cumulative time (in ticks) in various power states (Tick)
system.cpu14.power_state.pwrStateResidencyTicks::UNDEFINED   2147483750                       # Cumulative time (in ticks) in various power states (Tick)
system.cpu15.power_state.pwrStateResidencyTicks::UNDEFINED   2147483750                       # Cumulative time (in ticks) in various power states (Tick)
system.cpu16.power_state.pwrStateResidencyTicks::UNDEFINED   2147483750                       # Cumulative time (in ticks) in various power states (Tick)
system.cpu17.power_state.pwrStateResidencyTicks::UNDEFINED   2147483750                       # Cumulative time (in ticks) in various power states (Tick)
system.cpu18.power_state.pwrStateResidencyTicks::UNDEFINED   2147483750                       # Cumulative time (in ticks) in various power states (Tick)
system.cpu19.power_state.pwrStateResidencyTicks::UNDEFINED   2147483750                       # Cumulative time (in ticks) in various power states (Tick)
system.cpu2.power_state.pwrStateResidencyTicks::UNDEFINED   2147483750                       # Cumulative time (in ticks) in various power states (Tick)
system.cpu20.power_state.pwrStateResidencyTicks::UNDEFINED   2147483750                       # Cumulative time (in ticks) in various power states (Tick)
system.cpu21.power_state.pwrStateResidencyTicks::UNDEFINED   2147483750                       # Cumulative time (in ticks) in various power states (Tick)
system.cpu22.power_state.pwrStateResidencyTicks::UNDEFINED   2147483750                       # Cumulative time (in ticks) in various power states (Tick)
system.cpu23.power_state.pwrStateResidencyTicks::UNDEFINED   2147483750                       # Cumulative time (in ticks) in various power states (Tick)
system.cpu24.power_state.pwrStateResidencyTicks::UNDEFINED   2147483750                       # Cumulative time (in ticks) in various power states (Tick)
system.cpu25.power_state.pwrStateResidencyTicks::UNDEFINED   2147483750                       # Cumulative time (in ticks) in various power states (Tick)
system.cpu26.power_state.pwrStateResidencyTicks::UNDEFINED   2147483750                       # Cumulative time (in ticks) in various power states (Tick)
system.cpu27.power_state.pwrStateResidencyTicks::UNDEFINED   2147483750                       # Cumulative time (in ticks) in various power states (Tick)
system.cpu28.power_state.pwrStateResidencyTicks::UNDEFINED   2147483750                       # Cumulative time (in ticks) in various power states (Tick)
system.cpu29.power_state.pwrStateResidencyTicks::UNDEFINED   2147483750                       # Cumulative time (in ticks) in various power states (Tick)
system.cpu3.power_state.pwrStateResidencyTicks::UNDEFINED   2147483750                       # Cumulative time (in ticks) in various power states (Tick)
system.cpu30.power_state.pwrStateResidencyTicks::UNDEFINED   2147483750                       # Cumulative time (in ticks) in various power states (Tick)
system.cpu31.power_state.pwrStateResidencyTicks::UNDEFINED   2147483750                       # Cumulative time (in ticks) in various power states (Tick)
system.cpu32.power_state.pwrStateResidencyTicks::UNDEFINED   2147483750                       # Cumulative time (in ticks) in various power states (Tick)
system.cpu33.power_state.pwrStateResidencyTicks::UNDEFINED   2147483750                       # Cumulative time (in ticks) in various power states (Tick)
system.cpu34.power_state.pwrStateResidencyTicks::UNDEFINED   2147483750                       # Cumulative time (in ticks) in various power states (Tick)
system.cpu35.power_state.pwrStateResidencyTicks::UNDEFINED   2147483750                       # Cumulative time (in ticks) in various power states (Tick)
system.cpu36.power_state.pwrStateResidencyTicks::UNDEFINED   2147483750                       # Cumulative time (in ticks) in various power states (Tick)
system.cpu37.power_state.pwrStateResidencyTicks::UNDEFINED   2147483750                       # Cumulative time (in ticks) in various power states (Tick)
system.cpu38.power_state.pwrStateResidencyTicks::UNDEFINED   2147483750                       # Cumulative time (in ticks) in various power states (Tick)
system.cpu39.power_state.pwrStateResidencyTicks::UNDEFINED   2147483750                       # Cumulative time (in ticks) in various power states (Tick)
system.cpu4.power_state.pwrStateResidencyTicks::UNDEFINED   2147483750                       # Cumulative time (in ticks) in various power states (Tick)
system.cpu5.power_state.pwrStateResidencyTicks::UNDEFINED   2147483750                       # Cumulative time (in ticks) in various power states (Tick)
system.cpu6.power_state.pwrStateResidencyTicks::UNDEFINED   2147483750                       # Cumulative time (in ticks) in various power states (Tick)
system.cpu7.power_state.pwrStateResidencyTicks::UNDEFINED   2147483750                       # Cumulative time (in ticks) in various power states (Tick)
system.cpu8.power_state.pwrStateResidencyTicks::UNDEFINED   2147483750                       # Cumulative time (in ticks) in various power states (Tick)
system.cpu9.power_state.pwrStateResidencyTicks::UNDEFINED   2147483750                       # Cumulative time (in ticks) in various power states (Tick)
system.mem_ctrls0.power_state.pwrStateResidencyTicks::UNDEFINED   2147483750                       # Cumulative time (in ticks) in various power states (Tick)
system.mem_ctrls1.power_state.pwrStateResidencyTicks::UNDEFINED   2147483750                       # Cumulative time (in ticks) in various power states (Tick)
system.mem_ctrls10.power_state.pwrStateResidencyTicks::UNDEFINED   2147483750                       # Cumulative time (in ticks) in various power states (Tick)
system.mem_ctrls100.power_state.pwrStateResidencyTicks::UNDEFINED   2147483750                       # Cumulative time (in ticks) in various power states (Tick)
system.mem_ctrls101.power_state.pwrStateResidencyTicks::UNDEFINED   2147483750                       # Cumulative time (in ticks) in various power states (Tick)
system.mem_ctrls102.power_state.pwrStateResidencyTicks::UNDEFINED   2147483750                       # Cumulative time (in ticks) in various power states (Tick)
system.mem_ctrls103.power_state.pwrStateResidencyTicks::UNDEFINED   2147483750                       # Cumulative time (in ticks) in various power states (Tick)
system.mem_ctrls104.power_state.pwrStateResidencyTicks::UNDEFINED   2147483750                       # Cumulative time (in ticks) in various power states (Tick)
system.mem_ctrls105.power_state.pwrStateResidencyTicks::UNDEFINED   2147483750                       # Cumulative time (in ticks) in various power states (Tick)
system.mem_ctrls106.power_state.pwrStateResidencyTicks::UNDEFINED   2147483750                       # Cumulative time (in ticks) in various power states (Tick)
system.mem_ctrls107.power_state.pwrStateResidencyTicks::UNDEFINED   2147483750                       # Cumulative time (in ticks) in various power states (Tick)
system.mem_ctrls108.power_state.pwrStateResidencyTicks::UNDEFINED   2147483750                       # Cumulative time (in ticks) in various power states (Tick)
system.mem_ctrls109.power_state.pwrStateResidencyTicks::UNDEFINED   2147483750                       # Cumulative time (in ticks) in various power states (Tick)
system.mem_ctrls11.power_state.pwrStateResidencyTicks::UNDEFINED   2147483750                       # Cumulative time (in ticks) in various power states (Tick)
system.mem_ctrls110.power_state.pwrStateResidencyTicks::UNDEFINED   2147483750                       # Cumulative time (in ticks) in various power states (Tick)
system.mem_ctrls111.power_state.pwrStateResidencyTicks::UNDEFINED   2147483750                       # Cumulative time (in ticks) in various power states (Tick)
system.mem_ctrls112.power_state.pwrStateResidencyTicks::UNDEFINED   2147483750                       # Cumulative time (in ticks) in various power states (Tick)
system.mem_ctrls113.power_state.pwrStateResidencyTicks::UNDEFINED   2147483750                       # Cumulative time (in ticks) in various power states (Tick)
system.mem_ctrls114.power_state.pwrStateResidencyTicks::UNDEFINED   2147483750                       # Cumulative time (in ticks) in various power states (Tick)
system.mem_ctrls115.power_state.pwrStateResidencyTicks::UNDEFINED   2147483750                       # Cumulative time (in ticks) in various power states (Tick)
system.mem_ctrls116.power_state.pwrStateResidencyTicks::UNDEFINED   2147483750                       # Cumulative time (in ticks) in various power states (Tick)
system.mem_ctrls117.power_state.pwrStateResidencyTicks::UNDEFINED   2147483750                       # Cumulative time (in ticks) in various power states (Tick)
system.mem_ctrls118.power_state.pwrStateResidencyTicks::UNDEFINED   2147483750                       # Cumulative time (in ticks) in various power states (Tick)
system.mem_ctrls119.power_state.pwrStateResidencyTicks::UNDEFINED   2147483750                       # Cumulative time (in ticks) in various power states (Tick)
system.mem_ctrls12.power_state.pwrStateResidencyTicks::UNDEFINED   2147483750                       # Cumulative time (in ticks) in various power states (Tick)
system.mem_ctrls120.power_state.pwrStateResidencyTicks::UNDEFINED   2147483750                       # Cumulative time (in ticks) in various power states (Tick)
system.mem_ctrls121.power_state.pwrStateResidencyTicks::UNDEFINED   2147483750                       # Cumulative time (in ticks) in various power states (Tick)
system.mem_ctrls122.power_state.pwrStateResidencyTicks::UNDEFINED   2147483750                       # Cumulative time (in ticks) in various power states (Tick)
system.mem_ctrls123.power_state.pwrStateResidencyTicks::UNDEFINED   2147483750                       # Cumulative time (in ticks) in various power states (Tick)
system.mem_ctrls124.power_state.pwrStateResidencyTicks::UNDEFINED   2147483750                       # Cumulative time (in ticks) in various power states (Tick)
system.mem_ctrls125.power_state.pwrStateResidencyTicks::UNDEFINED   2147483750                       # Cumulative time (in ticks) in various power states (Tick)
system.mem_ctrls126.power_state.pwrStateResidencyTicks::UNDEFINED   2147483750                       # Cumulative time (in ticks) in various power states (Tick)
system.mem_ctrls127.power_state.pwrStateResidencyTicks::UNDEFINED   2147483750                       # Cumulative time (in ticks) in various power states (Tick)
system.mem_ctrls128.power_state.pwrStateResidencyTicks::UNDEFINED   2147483750                       # Cumulative time (in ticks) in various power states (Tick)
system.mem_ctrls129.power_state.pwrStateResidencyTicks::UNDEFINED   2147483750                       # Cumulative time (in ticks) in various power states (Tick)
system.mem_ctrls13.power_state.pwrStateResidencyTicks::UNDEFINED   2147483750                       # Cumulative time (in ticks) in various power states (Tick)
system.mem_ctrls130.power_state.pwrStateResidencyTicks::UNDEFINED   2147483750                       # Cumulative time (in ticks) in various power states (Tick)
system.mem_ctrls131.power_state.pwrStateResidencyTicks::UNDEFINED   2147483750                       # Cumulative time (in ticks) in various power states (Tick)
system.mem_ctrls132.power_state.pwrStateResidencyTicks::UNDEFINED   2147483750                       # Cumulative time (in ticks) in various power states (Tick)
system.mem_ctrls133.power_state.pwrStateResidencyTicks::UNDEFINED   2147483750                       # Cumulative time (in ticks) in various power states (Tick)
system.mem_ctrls134.power_state.pwrStateResidencyTicks::UNDEFINED   2147483750                       # Cumulative time (in ticks) in various power states (Tick)
system.mem_ctrls135.power_state.pwrStateResidencyTicks::UNDEFINED   2147483750                       # Cumulative time (in ticks) in various power states (Tick)
system.mem_ctrls136.power_state.pwrStateResidencyTicks::UNDEFINED   2147483750                       # Cumulative time (in ticks) in various power states (Tick)
system.mem_ctrls137.power_state.pwrStateResidencyTicks::UNDEFINED   2147483750                       # Cumulative time (in ticks) in various power states (Tick)
system.mem_ctrls138.power_state.pwrStateResidencyTicks::UNDEFINED   2147483750                       # Cumulative time (in ticks) in various power states (Tick)
system.mem_ctrls139.power_state.pwrStateResidencyTicks::UNDEFINED   2147483750                       # Cumulative time (in ticks) in various power states (Tick)
system.mem_ctrls14.power_state.pwrStateResidencyTicks::UNDEFINED   2147483750                       # Cumulative time (in ticks) in various power states (Tick)
system.mem_ctrls140.power_state.pwrStateResidencyTicks::UNDEFINED   2147483750                       # Cumulative time (in ticks) in various power states (Tick)
system.mem_ctrls141.power_state.pwrStateResidencyTicks::UNDEFINED   2147483750                       # Cumulative time (in ticks) in various power states (Tick)
system.mem_ctrls142.power_state.pwrStateResidencyTicks::UNDEFINED   2147483750                       # Cumulative time (in ticks) in various power states (Tick)
system.mem_ctrls143.power_state.pwrStateResidencyTicks::UNDEFINED   2147483750                       # Cumulative time (in ticks) in various power states (Tick)
system.mem_ctrls144.power_state.pwrStateResidencyTicks::UNDEFINED   2147483750                       # Cumulative time (in ticks) in various power states (Tick)
system.mem_ctrls145.power_state.pwrStateResidencyTicks::UNDEFINED   2147483750                       # Cumulative time (in ticks) in various power states (Tick)
system.mem_ctrls146.power_state.pwrStateResidencyTicks::UNDEFINED   2147483750                       # Cumulative time (in ticks) in various power states (Tick)
system.mem_ctrls147.power_state.pwrStateResidencyTicks::UNDEFINED   2147483750                       # Cumulative time (in ticks) in various power states (Tick)
system.mem_ctrls148.power_state.pwrStateResidencyTicks::UNDEFINED   2147483750                       # Cumulative time (in ticks) in various power states (Tick)
system.mem_ctrls149.power_state.pwrStateResidencyTicks::UNDEFINED   2147483750                       # Cumulative time (in ticks) in various power states (Tick)
system.mem_ctrls15.power_state.pwrStateResidencyTicks::UNDEFINED   2147483750                       # Cumulative time (in ticks) in various power states (Tick)
system.mem_ctrls150.power_state.pwrStateResidencyTicks::UNDEFINED   2147483750                       # Cumulative time (in ticks) in various power states (Tick)
system.mem_ctrls151.power_state.pwrStateResidencyTicks::UNDEFINED   2147483750                       # Cumulative time (in ticks) in various power states (Tick)
system.mem_ctrls152.power_state.pwrStateResidencyTicks::UNDEFINED   2147483750                       # Cumulative time (in ticks) in various power states (Tick)
system.mem_ctrls153.power_state.pwrStateResidencyTicks::UNDEFINED   2147483750                       # Cumulative time (in ticks) in various power states (Tick)
system.mem_ctrls154.power_state.pwrStateResidencyTicks::UNDEFINED   2147483750                       # Cumulative time (in ticks) in various power states (Tick)
system.mem_ctrls155.power_state.pwrStateResidencyTicks::UNDEFINED   2147483750                       # Cumulative time (in ticks) in various power states (Tick)
system.mem_ctrls156.power_state.pwrStateResidencyTicks::UNDEFINED   2147483750                       # Cumulative time (in ticks) in various power states (Tick)
system.mem_ctrls157.power_state.pwrStateResidencyTicks::UNDEFINED   2147483750                       # Cumulative time (in ticks) in various power states (Tick)
system.mem_ctrls158.power_state.pwrStateResidencyTicks::UNDEFINED   2147483750                       # Cumulative time (in ticks) in various power states (Tick)
system.mem_ctrls159.power_state.pwrStateResidencyTicks::UNDEFINED   2147483750                       # Cumulative time (in ticks) in various power states (Tick)
system.mem_ctrls16.power_state.pwrStateResidencyTicks::UNDEFINED   2147483750                       # Cumulative time (in ticks) in various power states (Tick)
system.mem_ctrls17.power_state.pwrStateResidencyTicks::UNDEFINED   2147483750                       # Cumulative time (in ticks) in various power states (Tick)
system.mem_ctrls18.power_state.pwrStateResidencyTicks::UNDEFINED   2147483750                       # Cumulative time (in ticks) in various power states (Tick)
system.mem_ctrls19.power_state.pwrStateResidencyTicks::UNDEFINED   2147483750                       # Cumulative time (in ticks) in various power states (Tick)
system.mem_ctrls2.power_state.pwrStateResidencyTicks::UNDEFINED   2147483750                       # Cumulative time (in ticks) in various power states (Tick)
system.mem_ctrls20.power_state.pwrStateResidencyTicks::UNDEFINED   2147483750                       # Cumulative time (in ticks) in various power states (Tick)
system.mem_ctrls21.power_state.pwrStateResidencyTicks::UNDEFINED   2147483750                       # Cumulative time (in ticks) in various power states (Tick)
system.mem_ctrls22.power_state.pwrStateResidencyTicks::UNDEFINED   2147483750                       # Cumulative time (in ticks) in various power states (Tick)
system.mem_ctrls23.power_state.pwrStateResidencyTicks::UNDEFINED   2147483750                       # Cumulative time (in ticks) in various power states (Tick)
system.mem_ctrls24.power_state.pwrStateResidencyTicks::UNDEFINED   2147483750                       # Cumulative time (in ticks) in various power states (Tick)
system.mem_ctrls25.power_state.pwrStateResidencyTicks::UNDEFINED   2147483750                       # Cumulative time (in ticks) in various power states (Tick)
system.mem_ctrls26.power_state.pwrStateResidencyTicks::UNDEFINED   2147483750                       # Cumulative time (in ticks) in various power states (Tick)
system.mem_ctrls27.power_state.pwrStateResidencyTicks::UNDEFINED   2147483750                       # Cumulative time (in ticks) in various power states (Tick)
system.mem_ctrls28.power_state.pwrStateResidencyTicks::UNDEFINED   2147483750                       # Cumulative time (in ticks) in various power states (Tick)
system.mem_ctrls29.power_state.pwrStateResidencyTicks::UNDEFINED   2147483750                       # Cumulative time (in ticks) in various power states (Tick)
system.mem_ctrls3.power_state.pwrStateResidencyTicks::UNDEFINED   2147483750                       # Cumulative time (in ticks) in various power states (Tick)
system.mem_ctrls30.power_state.pwrStateResidencyTicks::UNDEFINED   2147483750                       # Cumulative time (in ticks) in various power states (Tick)
system.mem_ctrls31.power_state.pwrStateResidencyTicks::UNDEFINED   2147483750                       # Cumulative time (in ticks) in various power states (Tick)
system.mem_ctrls32.power_state.pwrStateResidencyTicks::UNDEFINED   2147483750                       # Cumulative time (in ticks) in various power states (Tick)
system.mem_ctrls33.power_state.pwrStateResidencyTicks::UNDEFINED   2147483750                       # Cumulative time (in ticks) in various power states (Tick)
system.mem_ctrls34.power_state.pwrStateResidencyTicks::UNDEFINED   2147483750                       # Cumulative time (in ticks) in various power states (Tick)
system.mem_ctrls35.power_state.pwrStateResidencyTicks::UNDEFINED   2147483750                       # Cumulative time (in ticks) in various power states (Tick)
system.mem_ctrls36.power_state.pwrStateResidencyTicks::UNDEFINED   2147483750                       # Cumulative time (in ticks) in various power states (Tick)
system.mem_ctrls37.power_state.pwrStateResidencyTicks::UNDEFINED   2147483750                       # Cumulative time (in ticks) in various power states (Tick)
system.mem_ctrls38.power_state.pwrStateResidencyTicks::UNDEFINED   2147483750                       # Cumulative time (in ticks) in various power states (Tick)
system.mem_ctrls39.power_state.pwrStateResidencyTicks::UNDEFINED   2147483750                       # Cumulative time (in ticks) in various power states (Tick)
system.mem_ctrls4.power_state.pwrStateResidencyTicks::UNDEFINED   2147483750                       # Cumulative time (in ticks) in various power states (Tick)
system.mem_ctrls40.power_state.pwrStateResidencyTicks::UNDEFINED   2147483750                       # Cumulative time (in ticks) in various power states (Tick)
system.mem_ctrls41.power_state.pwrStateResidencyTicks::UNDEFINED   2147483750                       # Cumulative time (in ticks) in various power states (Tick)
system.mem_ctrls42.power_state.pwrStateResidencyTicks::UNDEFINED   2147483750                       # Cumulative time (in ticks) in various power states (Tick)
system.mem_ctrls43.power_state.pwrStateResidencyTicks::UNDEFINED   2147483750                       # Cumulative time (in ticks) in various power states (Tick)
system.mem_ctrls44.power_state.pwrStateResidencyTicks::UNDEFINED   2147483750                       # Cumulative time (in ticks) in various power states (Tick)
system.mem_ctrls45.power_state.pwrStateResidencyTicks::UNDEFINED   2147483750                       # Cumulative time (in ticks) in various power states (Tick)
system.mem_ctrls46.power_state.pwrStateResidencyTicks::UNDEFINED   2147483750                       # Cumulative time (in ticks) in various power states (Tick)
system.mem_ctrls47.power_state.pwrStateResidencyTicks::UNDEFINED   2147483750                       # Cumulative time (in ticks) in various power states (Tick)
system.mem_ctrls48.power_state.pwrStateResidencyTicks::UNDEFINED   2147483750                       # Cumulative time (in ticks) in various power states (Tick)
system.mem_ctrls49.power_state.pwrStateResidencyTicks::UNDEFINED   2147483750                       # Cumulative time (in ticks) in various power states (Tick)
system.mem_ctrls5.power_state.pwrStateResidencyTicks::UNDEFINED   2147483750                       # Cumulative time (in ticks) in various power states (Tick)
system.mem_ctrls50.power_state.pwrStateResidencyTicks::UNDEFINED   2147483750                       # Cumulative time (in ticks) in various power states (Tick)
system.mem_ctrls51.power_state.pwrStateResidencyTicks::UNDEFINED   2147483750                       # Cumulative time (in ticks) in various power states (Tick)
system.mem_ctrls52.power_state.pwrStateResidencyTicks::UNDEFINED   2147483750                       # Cumulative time (in ticks) in various power states (Tick)
system.mem_ctrls53.power_state.pwrStateResidencyTicks::UNDEFINED   2147483750                       # Cumulative time (in ticks) in various power states (Tick)
system.mem_ctrls54.power_state.pwrStateResidencyTicks::UNDEFINED   2147483750                       # Cumulative time (in ticks) in various power states (Tick)
system.mem_ctrls55.power_state.pwrStateResidencyTicks::UNDEFINED   2147483750                       # Cumulative time (in ticks) in various power states (Tick)
system.mem_ctrls56.power_state.pwrStateResidencyTicks::UNDEFINED   2147483750                       # Cumulative time (in ticks) in various power states (Tick)
system.mem_ctrls57.power_state.pwrStateResidencyTicks::UNDEFINED   2147483750                       # Cumulative time (in ticks) in various power states (Tick)
system.mem_ctrls58.power_state.pwrStateResidencyTicks::UNDEFINED   2147483750                       # Cumulative time (in ticks) in various power states (Tick)
system.mem_ctrls59.power_state.pwrStateResidencyTicks::UNDEFINED   2147483750                       # Cumulative time (in ticks) in various power states (Tick)
system.mem_ctrls6.power_state.pwrStateResidencyTicks::UNDEFINED   2147483750                       # Cumulative time (in ticks) in various power states (Tick)
system.mem_ctrls60.power_state.pwrStateResidencyTicks::UNDEFINED   2147483750                       # Cumulative time (in ticks) in various power states (Tick)
system.mem_ctrls61.power_state.pwrStateResidencyTicks::UNDEFINED   2147483750                       # Cumulative time (in ticks) in various power states (Tick)
system.mem_ctrls62.power_state.pwrStateResidencyTicks::UNDEFINED   2147483750                       # Cumulative time (in ticks) in various power states (Tick)
system.mem_ctrls63.power_state.pwrStateResidencyTicks::UNDEFINED   2147483750                       # Cumulative time (in ticks) in various power states (Tick)
system.mem_ctrls64.power_state.pwrStateResidencyTicks::UNDEFINED   2147483750                       # Cumulative time (in ticks) in various power states (Tick)
system.mem_ctrls65.power_state.pwrStateResidencyTicks::UNDEFINED   2147483750                       # Cumulative time (in ticks) in various power states (Tick)
system.mem_ctrls66.power_state.pwrStateResidencyTicks::UNDEFINED   2147483750                       # Cumulative time (in ticks) in various power states (Tick)
system.mem_ctrls67.power_state.pwrStateResidencyTicks::UNDEFINED   2147483750                       # Cumulative time (in ticks) in various power states (Tick)
system.mem_ctrls68.power_state.pwrStateResidencyTicks::UNDEFINED   2147483750                       # Cumulative time (in ticks) in various power states (Tick)
system.mem_ctrls69.power_state.pwrStateResidencyTicks::UNDEFINED   2147483750                       # Cumulative time (in ticks) in various power states (Tick)
system.mem_ctrls7.power_state.pwrStateResidencyTicks::UNDEFINED   2147483750                       # Cumulative time (in ticks) in various power states (Tick)
system.mem_ctrls70.power_state.pwrStateResidencyTicks::UNDEFINED   2147483750                       # Cumulative time (in ticks) in various power states (Tick)
system.mem_ctrls71.power_state.pwrStateResidencyTicks::UNDEFINED   2147483750                       # Cumulative time (in ticks) in various power states (Tick)
system.mem_ctrls72.power_state.pwrStateResidencyTicks::UNDEFINED   2147483750                       # Cumulative time (in ticks) in various power states (Tick)
system.mem_ctrls73.power_state.pwrStateResidencyTicks::UNDEFINED   2147483750                       # Cumulative time (in ticks) in various power states (Tick)
system.mem_ctrls74.power_state.pwrStateResidencyTicks::UNDEFINED   2147483750                       # Cumulative time (in ticks) in various power states (Tick)
system.mem_ctrls75.power_state.pwrStateResidencyTicks::UNDEFINED   2147483750                       # Cumulative time (in ticks) in various power states (Tick)
system.mem_ctrls76.power_state.pwrStateResidencyTicks::UNDEFINED   2147483750                       # Cumulative time (in ticks) in various power states (Tick)
system.mem_ctrls77.power_state.pwrStateResidencyTicks::UNDEFINED   2147483750                       # Cumulative time (in ticks) in various power states (Tick)
system.mem_ctrls78.power_state.pwrStateResidencyTicks::UNDEFINED   2147483750                       # Cumulative time (in ticks) in various power states (Tick)
system.mem_ctrls79.power_state.pwrStateResidencyTicks::UNDEFINED   2147483750                       # Cumulative time (in ticks) in various power states (Tick)
system.mem_ctrls8.power_state.pwrStateResidencyTicks::UNDEFINED   2147483750                       # Cumulative time (in ticks) in various power states (Tick)
system.mem_ctrls80.power_state.pwrStateResidencyTicks::UNDEFINED   2147483750                       # Cumulative time (in ticks) in various power states (Tick)
system.mem_ctrls81.power_state.pwrStateResidencyTicks::UNDEFINED   2147483750                       # Cumulative time (in ticks) in various power states (Tick)
system.mem_ctrls82.power_state.pwrStateResidencyTicks::UNDEFINED   2147483750                       # Cumulative time (in ticks) in various power states (Tick)
system.mem_ctrls83.power_state.pwrStateResidencyTicks::UNDEFINED   2147483750                       # Cumulative time (in ticks) in various power states (Tick)
system.mem_ctrls84.power_state.pwrStateResidencyTicks::UNDEFINED   2147483750                       # Cumulative time (in ticks) in various power states (Tick)
system.mem_ctrls85.power_state.pwrStateResidencyTicks::UNDEFINED   2147483750                       # Cumulative time (in ticks) in various power states (Tick)
system.mem_ctrls86.power_state.pwrStateResidencyTicks::UNDEFINED   2147483750                       # Cumulative time (in ticks) in various power states (Tick)
system.mem_ctrls87.power_state.pwrStateResidencyTicks::UNDEFINED   2147483750                       # Cumulative time (in ticks) in various power states (Tick)
system.mem_ctrls88.power_state.pwrStateResidencyTicks::UNDEFINED   2147483750                       # Cumulative time (in ticks) in various power states (Tick)
system.mem_ctrls89.power_state.pwrStateResidencyTicks::UNDEFINED   2147483750                       # Cumulative time (in ticks) in various power states (Tick)
system.mem_ctrls9.power_state.pwrStateResidencyTicks::UNDEFINED   2147483750                       # Cumulative time (in ticks) in various power states (Tick)
system.mem_ctrls90.power_state.pwrStateResidencyTicks::UNDEFINED   2147483750                       # Cumulative time (in ticks) in various power states (Tick)
system.mem_ctrls91.power_state.pwrStateResidencyTicks::UNDEFINED   2147483750                       # Cumulative time (in ticks) in various power states (Tick)
system.mem_ctrls92.power_state.pwrStateResidencyTicks::UNDEFINED   2147483750                       # Cumulative time (in ticks) in various power states (Tick)
system.mem_ctrls93.power_state.pwrStateResidencyTicks::UNDEFINED   2147483750                       # Cumulative time (in ticks) in various power states (Tick)
system.mem_ctrls94.power_state.pwrStateResidencyTicks::UNDEFINED   2147483750                       # Cumulative time (in ticks) in various power states (Tick)
system.mem_ctrls95.power_state.pwrStateResidencyTicks::UNDEFINED   2147483750                       # Cumulative time (in ticks) in various power states (Tick)
system.mem_ctrls96.power_state.pwrStateResidencyTicks::UNDEFINED   2147483750                       # Cumulative time (in ticks) in various power states (Tick)
system.mem_ctrls97.power_state.pwrStateResidencyTicks::UNDEFINED   2147483750                       # Cumulative time (in ticks) in various power states (Tick)
system.mem_ctrls98.power_state.pwrStateResidencyTicks::UNDEFINED   2147483750                       # Cumulative time (in ticks) in various power states (Tick)
system.mem_ctrls99.power_state.pwrStateResidencyTicks::UNDEFINED   2147483750                       # Cumulative time (in ticks) in various power states (Tick)
system.ruby.m_outstandReqHistSeqr::bucket_size            1                       (Unspecified)
system.ruby.m_outstandReqHistSeqr::max_bucket            9                       (Unspecified)
system.ruby.m_outstandReqHistSeqr::samples     17160083                       (Unspecified)
system.ruby.m_outstandReqHistSeqr::mean             1                       (Unspecified)
system.ruby.m_outstandReqHistSeqr::gmean            1                       (Unspecified)
system.ruby.m_outstandReqHistSeqr        |           0      0.00%      0.00% |    17160083    100.00%    100.00% |           0      0.00%    100.00% |           0      0.00%    100.00% |           0      0.00%    100.00% |           0      0.00%    100.00% |           0      0.00%    100.00% |           0      0.00%    100.00% |           0      0.00%    100.00% |           0      0.00%    100.00% (Unspecified)
system.ruby.m_outstandReqHistSeqr::total     17160083                       (Unspecified)
system.ruby.m_latencyHistSeqr::bucket_size            1                       (Unspecified)
system.ruby.m_latencyHistSeqr::max_bucket            9                       (Unspecified)
system.ruby.m_latencyHistSeqr::samples       17160079                       (Unspecified)
system.ruby.m_latencyHistSeqr::mean                 1                       (Unspecified)
system.ruby.m_latencyHistSeqr::gmean                1                       (Unspecified)
system.ruby.m_latencyHistSeqr            |           0      0.00%      0.00% |    17160079    100.00%    100.00% |           0      0.00%    100.00% |           0      0.00%    100.00% |           0      0.00%    100.00% |           0      0.00%    100.00% |           0      0.00%    100.00% |           0      0.00%    100.00% |           0      0.00%    100.00% |           0      0.00%    100.00% (Unspecified)
system.ruby.m_latencyHistSeqr::total         17160079                       (Unspecified)
system.ruby.m_hitLatencyHistSeqr::bucket_size            1                       (Unspecified)
system.ruby.m_hitLatencyHistSeqr::max_bucket            9                       (Unspecified)
system.ruby.m_hitLatencyHistSeqr::samples     17160079                       (Unspecified)
system.ruby.m_hitLatencyHistSeqr::mean              1                       (Unspecified)
system.ruby.m_hitLatencyHistSeqr::gmean             1                       (Unspecified)
system.ruby.m_hitLatencyHistSeqr         |           0      0.00%      0.00% |    17160079    100.00%    100.00% |           0      0.00%    100.00% |           0      0.00%    100.00% |           0      0.00%    100.00% |           0      0.00%    100.00% |           0      0.00%    100.00% |           0      0.00%    100.00% |           0      0.00%    100.00% |           0      0.00%    100.00% (Unspecified)
system.ruby.m_hitLatencyHistSeqr::total      17160079                       (Unspecified)
system.ruby.Directory_Controller.Receive_Request |       53525      0.62%      0.62% |       53681      0.63%      1.25% |       53798      0.63%      1.88% |       53542      0.62%      2.50% |       53361      0.62%      3.12% |       53826      0.63%      3.75% |       53365      0.62%      4.37% |       53809      0.63%      5.00% |       53897      0.63%      5.63% |       53539      0.62%      6.25% |       53327      0.62%      6.87% |       53578      0.62%      7.50% |       53459      0.62%      8.12% |       53387      0.62%      8.74% |       53422      0.62%      9.36% |       53468      0.62%      9.99% |       53562      0.62%     10.61% |       53804      0.63%     11.24% |       53591      0.62%     11.86% |       53591      0.62%     12.49% |       53768      0.63%     13.11% |       53447      0.62%     13.74% |       53834      0.63%     14.36% |       53662      0.63%     14.99% |       53561      0.62%     15.61% |       53347      0.62%     16.24% |       53605      0.62%     16.86% |       53983      0.63%     17.49% |       53729      0.63%     18.12% |       53818      0.63%     18.74% |       53516      0.62%     19.37% |       53851      0.63%     19.99% |       53808      0.63%     20.62% |       53535      0.62%     21.25% |       53468      0.62%     21.87% |       53636      0.63%     22.49% |       53556      0.62%     23.12% |       53718      0.63%     23.74% |       53366      0.62%     24.37% |       53474      0.62%     24.99% |       53747      0.63%     25.61% |       53774      0.63%     26.24% |       53631      0.63%     26.87% |       54085      0.63%     27.50% |       53351      0.62%     28.12% |       53570      0.62%     28.74% |       53592      0.62%     29.37% |       53594      0.62%     29.99% |       53875      0.63%     30.62% |       53707      0.63%     31.25% |       53655      0.63%     31.87% |       53732      0.63%     32.50% |       53377      0.62%     33.12% |       53961      0.63%     33.75% |       53507      0.62%     34.37% |       53702      0.63%     35.00% |       53288      0.62%     35.62% |       53550      0.62%     36.24% |       53777      0.63%     36.87% |       53344      0.62%     37.49% |       53828      0.63%     38.12% |       53167      0.62%     38.74% |       53642      0.63%     39.36% |       53901      0.63%     39.99% |       53808      0.63%     40.62% |       53688      0.63%     41.24% |       53825      0.63%     41.87% |       53554      0.62%     42.50% |       53316      0.62%     43.12% |       53566      0.62%     43.74% |       53403      0.62%     44.36% |       53537      0.62%     44.99% |       53555      0.62%     45.61% |       53765      0.63%     46.24% |       53561      0.62%     46.86% |       53898      0.63%     47.49% |       54141      0.63%     48.12% |       53329      0.62%     48.74% |       53671      0.63%     49.37% |       53725      0.63%     49.99% |       53498      0.62%     50.62% |       53315      0.62%     51.24% |       53414      0.62%     51.86% |       53766      0.63%     52.49% |       53799      0.63%     53.12% |       53657      0.63%     53.74% |       53466      0.62%     54.36% |       53871      0.63%     54.99% |       54297      0.63%     55.62% |       53532      0.62%     56.25% |       53577      0.62%     56.87% |       54093      0.63%     57.50% |       53820      0.63%     58.13% |       53352      0.62%     58.75% |       53752      0.63%     59.38% |       53328      0.62%     60.00% |       53598      0.62%     60.62% |       53606      0.62%     61.25% |       53575      0.62%     61.87% |       53449      0.62%     62.50% |       53807      0.63%     63.12% |       53436      0.62%     63.75% |       53733      0.63%     64.37% |       53567      0.62%     65.00% |       53553      0.62%     65.62% |       53720      0.63%     66.25% |       53523      0.62%     66.87% |       53281      0.62%     67.49% |       53669      0.63%     68.12% |       53729      0.63%     68.74% |       53692      0.63%     69.37% |       53668      0.63%     69.99% |       53351      0.62%     70.62% |       53493      0.62%     71.24% |       53836      0.63%     71.87% |       53828      0.63%     72.49% |       53827      0.63%     73.12% |       53375      0.62%     73.74% |       53919      0.63%     74.37% |       53510      0.62%     75.00% |       53284      0.62%     75.62% |       53442      0.62%     76.24% |       53541      0.62%     76.86% |       53752      0.63%     77.49% |       53745      0.63%     78.12% |       53723      0.63%     78.74% |       53575      0.62%     79.37% |       53680      0.63%     79.99% |       53798      0.63%     80.62% |       53429      0.62%     81.24% |       53546      0.62%     81.87% |       53571      0.62%     82.49% |       53661      0.63%     83.12% |       53539      0.62%     83.74% |       53427      0.62%     84.36% |       53526      0.62%     84.99% |       53194      0.62%     85.61% |       53313      0.62%     86.23% |       53995      0.63%     86.86% |       53753      0.63%     87.48% |       54224      0.63%     88.11% |       53854      0.63%     88.74% |       53657      0.63%     89.37% |       53664      0.63%     89.99% |       53131      0.62%     90.61% |       53510      0.62%     91.24% |       53805      0.63%     91.86% |       53544      0.62%     92.49% |       53599      0.62%     93.11% |       53724      0.63%     93.74% |       53865      0.63%     94.37% |       53348      0.62%     94.99% |       53678      0.63%     95.61% |       54088      0.63%     96.24% |       53953      0.63%     96.87% |       53853      0.63%     97.50% |       53789      0.63%     98.13% |       53515      0.62%     98.75% |       53915      0.63%     99.38% |       53371      0.62%    100.00% (Unspecified)
system.ruby.Directory_Controller.Receive_Request::total      8580776                       (Unspecified)
system.ruby.Directory_Controller.Receive_Response |       53464      0.62%      0.62% |       53074      0.62%      1.24% |       54205      0.63%      1.87% |       53456      0.62%      2.50% |       53475      0.62%      3.12% |       53620      0.62%      3.75% |       53499      0.62%      4.37% |       53631      0.63%      4.99% |       53793      0.63%      5.62% |       53612      0.62%      6.25% |       53851      0.63%      6.87% |       53979      0.63%      7.50% |       53484      0.62%      8.13% |       53885      0.63%      8.75% |       53708      0.63%      9.38% |       52819      0.62%     10.00% |       53492      0.62%     10.62% |       53458      0.62%     11.24% |       53737      0.63%     11.87% |       53270      0.62%     12.49% |       53477      0.62%     13.11% |       53707      0.63%     13.74% |       53900      0.63%     14.37% |       53788      0.63%     14.99% |       53673      0.63%     15.62% |       53249      0.62%     16.24% |       53854      0.63%     16.87% |       53578      0.62%     17.49% |       53193      0.62%     18.11% |       53601      0.62%     18.74% |       53648      0.63%     19.36% |       53385      0.62%     19.99% |       53452      0.62%     20.61% |       53726      0.63%     21.23% |       54166      0.63%     21.87% |       53509      0.62%     22.49% |       53969      0.63%     23.12% |       53755      0.63%     23.74% |       53726      0.63%     24.37% |       53608      0.62%     25.00% |       53736      0.63%     25.62% |       53585      0.62%     26.25% |       53662      0.63%     26.87% |       53683      0.63%     27.50% |       53740      0.63%     28.12% |       54072      0.63%     28.75% |       53570      0.62%     29.38% |       53965      0.63%     30.01% |       53587      0.62%     30.63% |       53194      0.62%     31.25% |       53760      0.63%     31.88% |       53706      0.63%     32.51% |       53651      0.63%     33.13% |       53865      0.63%     33.76% |       53872      0.63%     34.39% |       53915      0.63%     35.02% |       53262      0.62%     35.64% |       53420      0.62%     36.26% |       54154      0.63%     36.89% |       54004      0.63%     37.52% |       53551      0.62%     38.14% |       53295      0.62%     38.76% |       53562      0.62%     39.39% |       53691      0.63%     40.01% |       53385      0.62%     40.64% |       53551      0.62%     41.26% |       53561      0.62%     41.89% |       53475      0.62%     42.51% |       53615      0.62%     43.13% |       53574      0.62%     43.76% |       53889      0.63%     44.39% |       53670      0.63%     45.01% |       53266      0.62%     45.63% |       52759      0.61%     46.25% |       54036      0.63%     46.88% |       53249      0.62%     47.50% |       53472      0.62%     48.12% |       53648      0.63%     48.75% |       53394      0.62%     49.37% |       53298      0.62%     49.99% |       53772      0.63%     50.62% |       53494      0.62%     51.24% |       53679      0.63%     51.87% |       53522      0.62%     52.49% |       53329      0.62%     53.11% |       53699      0.63%     53.74% |       53728      0.63%     54.36% |       53926      0.63%     54.99% |       53540      0.62%     55.62% |       53794      0.63%     56.24% |       53409      0.62%     56.87% |       53558      0.62%     57.49% |       53507      0.62%     58.11% |       53612      0.62%     58.74% |       53615      0.62%     59.36% |       53342      0.62%     59.99% |       53487      0.62%     60.61% |       54025      0.63%     61.24% |       53752      0.63%     61.87% |       53533      0.62%     62.49% |       53741      0.63%     63.12% |       53965      0.63%     63.75% |       54014      0.63%     64.37% |       53376      0.62%     65.00% |       53679      0.63%     65.62% |       53996      0.63%     66.25% |       53672      0.63%     66.88% |       53821      0.63%     67.50% |       53742      0.63%     68.13% |       53454      0.62%     68.75% |       53344      0.62%     69.38% |       53670      0.63%     70.00% |       53992      0.63%     70.63% |       53917      0.63%     71.26% |       53657      0.63%     71.88% |       53545      0.62%     72.51% |       53577      0.62%     73.13% |       53584      0.62%     73.76% |       53735      0.63%     74.38% |       53196      0.62%     75.00% |       53845      0.63%     75.63% |       53480      0.62%     76.26% |       53681      0.63%     76.88% |       53559      0.62%     77.51% |       53963      0.63%     78.13% |       53440      0.62%     78.76% |       53569      0.62%     79.38% |       53374      0.62%     80.00% |       53820      0.63%     80.63% |       53677      0.63%     81.26% |       53616      0.62%     81.88% |       53255      0.62%     82.50% |       53655      0.63%     83.13% |       53804      0.63%     83.76% |       53164      0.62%     84.37% |       53559      0.62%     85.00% |       53842      0.63%     85.63% |       53536      0.62%     86.25% |       53242      0.62%     86.87% |       53710      0.63%     87.50% |       53640      0.63%     88.12% |       53328      0.62%     88.74% |       53672      0.63%     89.37% |       53584      0.62%     89.99% |       53213      0.62%     90.61% |       53977      0.63%     91.24% |       53739      0.63%     91.87% |       53661      0.63%     92.50% |       53595      0.62%     93.12% |       53846      0.63%     93.75% |       53877      0.63%     94.38% |       53691      0.63%     95.00% |       53230      0.62%     95.62% |       53560      0.62%     96.25% |       53660      0.63%     96.87% |       53698      0.63%     97.50% |       53495      0.62%     98.12% |       53467      0.62%     98.74% |       53868      0.63%     99.37% |       53844      0.63%    100.00% (Unspecified)
system.ruby.Directory_Controller.Receive_Response::total      8579256                       (Unspecified)
system.ruby.Directory_Controller.I.Receive_Request |       53525      0.62%      0.62% |       53681      0.63%      1.25% |       53798      0.63%      1.88% |       53542      0.62%      2.50% |       53361      0.62%      3.12% |       53826      0.63%      3.75% |       53365      0.62%      4.37% |       53809      0.63%      5.00% |       53897      0.63%      5.63% |       53539      0.62%      6.25% |       53327      0.62%      6.87% |       53578      0.62%      7.50% |       53459      0.62%      8.12% |       53387      0.62%      8.74% |       53422      0.62%      9.36% |       53468      0.62%      9.99% |       53562      0.62%     10.61% |       53804      0.63%     11.24% |       53591      0.62%     11.86% |       53591      0.62%     12.49% |       53768      0.63%     13.11% |       53447      0.62%     13.74% |       53834      0.63%     14.36% |       53662      0.63%     14.99% |       53561      0.62%     15.61% |       53347      0.62%     16.24% |       53605      0.62%     16.86% |       53983      0.63%     17.49% |       53729      0.63%     18.12% |       53818      0.63%     18.74% |       53516      0.62%     19.37% |       53851      0.63%     19.99% |       53808      0.63%     20.62% |       53535      0.62%     21.25% |       53468      0.62%     21.87% |       53636      0.63%     22.49% |       53556      0.62%     23.12% |       53718      0.63%     23.74% |       53366      0.62%     24.37% |       53474      0.62%     24.99% |       53747      0.63%     25.61% |       53774      0.63%     26.24% |       53631      0.63%     26.87% |       54085      0.63%     27.50% |       53351      0.62%     28.12% |       53570      0.62%     28.74% |       53592      0.62%     29.37% |       53594      0.62%     29.99% |       53875      0.63%     30.62% |       53707      0.63%     31.25% |       53655      0.63%     31.87% |       53732      0.63%     32.50% |       53377      0.62%     33.12% |       53961      0.63%     33.75% |       53507      0.62%     34.37% |       53702      0.63%     35.00% |       53288      0.62%     35.62% |       53550      0.62%     36.24% |       53777      0.63%     36.87% |       53344      0.62%     37.49% |       53828      0.63%     38.12% |       53167      0.62%     38.74% |       53642      0.63%     39.36% |       53901      0.63%     39.99% |       53808      0.63%     40.62% |       53688      0.63%     41.24% |       53825      0.63%     41.87% |       53554      0.62%     42.50% |       53316      0.62%     43.12% |       53566      0.62%     43.74% |       53403      0.62%     44.36% |       53537      0.62%     44.99% |       53555      0.62%     45.61% |       53765      0.63%     46.24% |       53561      0.62%     46.86% |       53898      0.63%     47.49% |       54141      0.63%     48.12% |       53329      0.62%     48.74% |       53671      0.63%     49.37% |       53725      0.63%     49.99% |       53498      0.62%     50.62% |       53315      0.62%     51.24% |       53414      0.62%     51.86% |       53766      0.63%     52.49% |       53799      0.63%     53.12% |       53657      0.63%     53.74% |       53466      0.62%     54.36% |       53871      0.63%     54.99% |       54297      0.63%     55.62% |       53532      0.62%     56.25% |       53577      0.62%     56.87% |       54093      0.63%     57.50% |       53820      0.63%     58.13% |       53352      0.62%     58.75% |       53752      0.63%     59.38% |       53328      0.62%     60.00% |       53598      0.62%     60.62% |       53606      0.62%     61.25% |       53575      0.62%     61.87% |       53449      0.62%     62.50% |       53807      0.63%     63.12% |       53436      0.62%     63.75% |       53733      0.63%     64.37% |       53567      0.62%     65.00% |       53553      0.62%     65.62% |       53720      0.63%     66.25% |       53523      0.62%     66.87% |       53281      0.62%     67.49% |       53669      0.63%     68.12% |       53729      0.63%     68.74% |       53692      0.63%     69.37% |       53668      0.63%     69.99% |       53351      0.62%     70.62% |       53493      0.62%     71.24% |       53836      0.63%     71.87% |       53828      0.63%     72.49% |       53827      0.63%     73.12% |       53375      0.62%     73.74% |       53919      0.63%     74.37% |       53510      0.62%     75.00% |       53284      0.62%     75.62% |       53442      0.62%     76.24% |       53541      0.62%     76.86% |       53752      0.63%     77.49% |       53745      0.63%     78.12% |       53723      0.63%     78.74% |       53575      0.62%     79.37% |       53680      0.63%     79.99% |       53798      0.63%     80.62% |       53429      0.62%     81.24% |       53546      0.62%     81.87% |       53571      0.62%     82.49% |       53661      0.63%     83.12% |       53539      0.62%     83.74% |       53427      0.62%     84.36% |       53526      0.62%     84.99% |       53194      0.62%     85.61% |       53313      0.62%     86.23% |       53995      0.63%     86.86% |       53753      0.63%     87.48% |       54224      0.63%     88.11% |       53854      0.63%     88.74% |       53657      0.63%     89.37% |       53664      0.63%     89.99% |       53131      0.62%     90.61% |       53510      0.62%     91.24% |       53805      0.63%     91.86% |       53544      0.62%     92.49% |       53599      0.62%     93.11% |       53724      0.63%     93.74% |       53865      0.63%     94.37% |       53348      0.62%     94.99% |       53678      0.63%     95.61% |       54088      0.63%     96.24% |       53953      0.63%     96.87% |       53853      0.63%     97.50% |       53789      0.63%     98.13% |       53515      0.62%     98.75% |       53915      0.63%     99.38% |       53371      0.62%    100.00% (Unspecified)
system.ruby.Directory_Controller.I.Receive_Request::total      8580776                       (Unspecified)
system.ruby.Directory_Controller.I.Receive_Response |       53464      0.62%      0.62% |       53074      0.62%      1.24% |       54205      0.63%      1.87% |       53456      0.62%      2.50% |       53475      0.62%      3.12% |       53620      0.62%      3.75% |       53499      0.62%      4.37% |       53631      0.63%      4.99% |       53793      0.63%      5.62% |       53612      0.62%      6.25% |       53851      0.63%      6.87% |       53979      0.63%      7.50% |       53484      0.62%      8.13% |       53885      0.63%      8.75% |       53708      0.63%      9.38% |       52819      0.62%     10.00% |       53492      0.62%     10.62% |       53458      0.62%     11.24% |       53737      0.63%     11.87% |       53270      0.62%     12.49% |       53477      0.62%     13.11% |       53707      0.63%     13.74% |       53900      0.63%     14.37% |       53788      0.63%     14.99% |       53673      0.63%     15.62% |       53249      0.62%     16.24% |       53854      0.63%     16.87% |       53578      0.62%     17.49% |       53193      0.62%     18.11% |       53601      0.62%     18.74% |       53648      0.63%     19.36% |       53385      0.62%     19.99% |       53452      0.62%     20.61% |       53726      0.63%     21.23% |       54166      0.63%     21.87% |       53509      0.62%     22.49% |       53969      0.63%     23.12% |       53755      0.63%     23.74% |       53726      0.63%     24.37% |       53608      0.62%     25.00% |       53736      0.63%     25.62% |       53585      0.62%     26.25% |       53662      0.63%     26.87% |       53683      0.63%     27.50% |       53740      0.63%     28.12% |       54072      0.63%     28.75% |       53570      0.62%     29.38% |       53965      0.63%     30.01% |       53587      0.62%     30.63% |       53194      0.62%     31.25% |       53760      0.63%     31.88% |       53706      0.63%     32.51% |       53651      0.63%     33.13% |       53865      0.63%     33.76% |       53872      0.63%     34.39% |       53915      0.63%     35.02% |       53262      0.62%     35.64% |       53420      0.62%     36.26% |       54154      0.63%     36.89% |       54004      0.63%     37.52% |       53551      0.62%     38.14% |       53295      0.62%     38.76% |       53562      0.62%     39.39% |       53691      0.63%     40.01% |       53385      0.62%     40.64% |       53551      0.62%     41.26% |       53561      0.62%     41.89% |       53475      0.62%     42.51% |       53615      0.62%     43.13% |       53574      0.62%     43.76% |       53889      0.63%     44.39% |       53670      0.63%     45.01% |       53266      0.62%     45.63% |       52759      0.61%     46.25% |       54036      0.63%     46.88% |       53249      0.62%     47.50% |       53472      0.62%     48.12% |       53648      0.63%     48.75% |       53394      0.62%     49.37% |       53298      0.62%     49.99% |       53772      0.63%     50.62% |       53494      0.62%     51.24% |       53679      0.63%     51.87% |       53522      0.62%     52.49% |       53329      0.62%     53.11% |       53699      0.63%     53.74% |       53728      0.63%     54.36% |       53926      0.63%     54.99% |       53540      0.62%     55.62% |       53794      0.63%     56.24% |       53409      0.62%     56.87% |       53558      0.62%     57.49% |       53507      0.62%     58.11% |       53612      0.62%     58.74% |       53615      0.62%     59.36% |       53342      0.62%     59.99% |       53487      0.62%     60.61% |       54025      0.63%     61.24% |       53752      0.63%     61.87% |       53533      0.62%     62.49% |       53741      0.63%     63.12% |       53965      0.63%     63.75% |       54014      0.63%     64.37% |       53376      0.62%     65.00% |       53679      0.63%     65.62% |       53996      0.63%     66.25% |       53672      0.63%     66.88% |       53821      0.63%     67.50% |       53742      0.63%     68.13% |       53454      0.62%     68.75% |       53344      0.62%     69.38% |       53670      0.63%     70.00% |       53992      0.63%     70.63% |       53917      0.63%     71.26% |       53657      0.63%     71.88% |       53545      0.62%     72.51% |       53577      0.62%     73.13% |       53584      0.62%     73.76% |       53735      0.63%     74.38% |       53196      0.62%     75.00% |       53845      0.63%     75.63% |       53480      0.62%     76.26% |       53681      0.63%     76.88% |       53559      0.62%     77.51% |       53963      0.63%     78.13% |       53440      0.62%     78.76% |       53569      0.62%     79.38% |       53374      0.62%     80.00% |       53820      0.63%     80.63% |       53677      0.63%     81.26% |       53616      0.62%     81.88% |       53255      0.62%     82.50% |       53655      0.63%     83.13% |       53804      0.63%     83.76% |       53164      0.62%     84.37% |       53559      0.62%     85.00% |       53842      0.63%     85.63% |       53536      0.62%     86.25% |       53242      0.62%     86.87% |       53710      0.63%     87.50% |       53640      0.63%     88.12% |       53328      0.62%     88.74% |       53672      0.63%     89.37% |       53584      0.62%     89.99% |       53213      0.62%     90.61% |       53977      0.63%     91.24% |       53739      0.63%     91.87% |       53661      0.63%     92.50% |       53595      0.62%     93.12% |       53846      0.63%     93.75% |       53877      0.63%     94.38% |       53691      0.63%     95.00% |       53230      0.62%     95.62% |       53560      0.62%     96.25% |       53660      0.63%     96.87% |       53698      0.63%     97.50% |       53495      0.62%     98.12% |       53467      0.62%     98.74% |       53868      0.63%     99.37% |       53844      0.63%    100.00% (Unspecified)
system.ruby.Directory_Controller.I.Receive_Response::total      8579256                       (Unspecified)
system.ruby.L1Cache_Controller.Request   |      214247      2.50%      2.50% |      214438      2.50%      5.00% |      214518      2.50%      7.50% |      214621      2.50%     10.00% |      215069      2.51%     12.50% |      214086      2.49%     15.00% |      214552      2.50%     17.50% |      214426      2.50%     20.00% |      214267      2.50%     22.49% |      214341      2.50%     24.99% |      215087      2.51%     27.50% |      214740      2.50%     30.00% |      214315      2.50%     32.50% |      214438      2.50%     35.00% |      214869      2.50%     37.50% |      214387      2.50%     40.00% |      214984      2.51%     42.51% |      214282      2.50%     45.00% |      214004      2.49%     47.50% |      214881      2.50%     50.00% |      214255      2.50%     52.50% |      215043      2.51%     55.00% |      214942      2.50%     57.51% |      213914      2.49%     60.00% |      214513      2.50%     62.50% |      214479      2.50%     65.00% |      213687      2.49%     67.49% |      215555      2.51%     70.00% |      214319      2.50%     72.50% |      213669      2.49%     74.99% |      214637      2.50%     77.49% |      215235      2.51%     80.00% |      215082      2.51%     82.51% |      214596      2.50%     85.01% |      214248      2.50%     87.51% |      214613      2.50%     90.01% |      214258      2.50%     92.50% |      213937      2.49%     95.00% |      214551      2.50%     97.50% |      214707      2.50%    100.00% (Unspecified)
system.ruby.L1Cache_Controller.Request::total      8580792                       (Unspecified)
system.ruby.L1Cache_Controller.Response  |      215115      2.51%      2.51% |      214814      2.50%      5.01% |      214718      2.50%      7.51% |      214677      2.50%     10.02% |      214495      2.50%     12.52% |      214453      2.50%     15.02% |      214665      2.50%     17.52% |      214122      2.50%     20.01% |      214568      2.50%     22.52% |      214181      2.50%     25.01% |      214653      2.50%     27.51% |      214362      2.50%     30.01% |      214540      2.50%     32.51% |      212933      2.48%     34.99% |      213758      2.49%     37.49% |      214362      2.50%     39.98% |      214181      2.50%     42.48% |      214032      2.49%     44.98% |      214591      2.50%     47.48% |      214279      2.50%     49.98% |      214896      2.50%     52.48% |      214665      2.50%     54.98% |      214662      2.50%     57.48% |      214453      2.50%     59.98% |      214214      2.50%     62.48% |      215242      2.51%     64.99% |      214104      2.50%     67.49% |      214710      2.50%     69.99% |      215699      2.51%     72.50% |      213961      2.49%     75.00% |      214348      2.50%     77.49% |      214701      2.50%     80.00% |      214314      2.50%     82.49% |      214641      2.50%     85.00% |      214782      2.50%     87.50% |      214789      2.50%     90.00% |      214710      2.50%     92.51% |      213761      2.49%     95.00% |      214605      2.50%     97.50% |      214531      2.50%    100.00% (Unspecified)
system.ruby.L1Cache_Controller.Response::total      8579287                       (Unspecified)
system.ruby.L1Cache_Controller.I.Request |      214247      2.50%      2.50% |      214438      2.50%      5.00% |      214518      2.50%      7.50% |      214621      2.50%     10.00% |      215069      2.51%     12.50% |      214086      2.49%     15.00% |      214552      2.50%     17.50% |      214426      2.50%     20.00% |      214267      2.50%     22.49% |      214341      2.50%     24.99% |      215087      2.51%     27.50% |      214740      2.50%     30.00% |      214315      2.50%     32.50% |      214438      2.50%     35.00% |      214869      2.50%     37.50% |      214387      2.50%     40.00% |      214984      2.51%     42.51% |      214282      2.50%     45.00% |      214004      2.49%     47.50% |      214881      2.50%     50.00% |      214255      2.50%     52.50% |      215043      2.51%     55.00% |      214942      2.50%     57.51% |      213914      2.49%     60.00% |      214513      2.50%     62.50% |      214479      2.50%     65.00% |      213687      2.49%     67.49% |      215555      2.51%     70.00% |      214319      2.50%     72.50% |      213669      2.49%     74.99% |      214637      2.50%     77.49% |      215235      2.51%     80.00% |      215082      2.51%     82.51% |      214596      2.50%     85.01% |      214248      2.50%     87.51% |      214613      2.50%     90.01% |      214258      2.50%     92.50% |      213937      2.49%     95.00% |      214551      2.50%     97.50% |      214707      2.50%    100.00% (Unspecified)
system.ruby.L1Cache_Controller.I.Request::total      8580792                       (Unspecified)
system.ruby.L1Cache_Controller.I.Response |      215115      2.51%      2.51% |      214814      2.50%      5.01% |      214718      2.50%      7.51% |      214677      2.50%     10.02% |      214495      2.50%     12.52% |      214453      2.50%     15.02% |      214665      2.50%     17.52% |      214122      2.50%     20.01% |      214568      2.50%     22.52% |      214181      2.50%     25.01% |      214653      2.50%     27.51% |      214362      2.50%     30.01% |      214540      2.50%     32.51% |      212933      2.48%     34.99% |      213758      2.49%     37.49% |      214362      2.50%     39.98% |      214181      2.50%     42.48% |      214032      2.49%     44.98% |      214591      2.50%     47.48% |      214279      2.50%     49.98% |      214896      2.50%     52.48% |      214665      2.50%     54.98% |      214662      2.50%     57.48% |      214453      2.50%     59.98% |      214214      2.50%     62.48% |      215242      2.51%     64.99% |      214104      2.50%     67.49% |      214710      2.50%     69.99% |      215699      2.51%     72.50% |      213961      2.49%     75.00% |      214348      2.50%     77.49% |      214701      2.50%     80.00% |      214314      2.50%     82.49% |      214641      2.50%     85.00% |      214782      2.50%     87.50% |      214789      2.50%     90.00% |      214710      2.50%     92.51% |      213761      2.49%     95.00% |      214605      2.50%     97.50% |      214531      2.50%    100.00% (Unspecified)
system.ruby.L1Cache_Controller.I.Response::total      8579287                       (Unspecified)
system.ruby.RequestType.LD.latency_hist_seqr::bucket_size            1                       (Unspecified)
system.ruby.RequestType.LD.latency_hist_seqr::max_bucket            9                       (Unspecified)
system.ruby.RequestType.LD.latency_hist_seqr::samples      8580792                       (Unspecified)
system.ruby.RequestType.LD.latency_hist_seqr::mean            1                       (Unspecified)
system.ruby.RequestType.LD.latency_hist_seqr::gmean            1                       (Unspecified)
system.ruby.RequestType.LD.latency_hist_seqr |           0      0.00%      0.00% |     8580792    100.00%    100.00% |           0      0.00%    100.00% |           0      0.00%    100.00% |           0      0.00%    100.00% |           0      0.00%    100.00% |           0      0.00%    100.00% |           0      0.00%    100.00% |           0      0.00%    100.00% |           0      0.00%    100.00% (Unspecified)
system.ruby.RequestType.LD.latency_hist_seqr::total      8580792                       (Unspecified)
system.ruby.RequestType.LD.hit_latency_hist_seqr::bucket_size            1                       (Unspecified)
system.ruby.RequestType.LD.hit_latency_hist_seqr::max_bucket            9                       (Unspecified)
system.ruby.RequestType.LD.hit_latency_hist_seqr::samples      8580792                       (Unspecified)
system.ruby.RequestType.LD.hit_latency_hist_seqr::mean            1                       (Unspecified)
system.ruby.RequestType.LD.hit_latency_hist_seqr::gmean            1                       (Unspecified)
system.ruby.RequestType.LD.hit_latency_hist_seqr |           0      0.00%      0.00% |     8580792    100.00%    100.00% |           0      0.00%    100.00% |           0      0.00%    100.00% |           0      0.00%    100.00% |           0      0.00%    100.00% |           0      0.00%    100.00% |           0      0.00%    100.00% |           0      0.00%    100.00% |           0      0.00%    100.00% (Unspecified)
system.ruby.RequestType.LD.hit_latency_hist_seqr::total      8580792                       (Unspecified)
system.ruby.RequestType.ST.latency_hist_seqr::bucket_size            1                       (Unspecified)
system.ruby.RequestType.ST.latency_hist_seqr::max_bucket            9                       (Unspecified)
system.ruby.RequestType.ST.latency_hist_seqr::samples      8579287                       (Unspecified)
system.ruby.RequestType.ST.latency_hist_seqr::mean            1                       (Unspecified)
system.ruby.RequestType.ST.latency_hist_seqr::gmean            1                       (Unspecified)
system.ruby.RequestType.ST.latency_hist_seqr |           0      0.00%      0.00% |     8579287    100.00%    100.00% |           0      0.00%    100.00% |           0      0.00%    100.00% |           0      0.00%    100.00% |           0      0.00%    100.00% |           0      0.00%    100.00% |           0      0.00%    100.00% |           0      0.00%    100.00% |           0      0.00%    100.00% (Unspecified)
system.ruby.RequestType.ST.latency_hist_seqr::total      8579287                       (Unspecified)
system.ruby.RequestType.ST.hit_latency_hist_seqr::bucket_size            1                       (Unspecified)
system.ruby.RequestType.ST.hit_latency_hist_seqr::max_bucket            9                       (Unspecified)
system.ruby.RequestType.ST.hit_latency_hist_seqr::samples      8579287                       (Unspecified)
system.ruby.RequestType.ST.hit_latency_hist_seqr::mean            1                       (Unspecified)
system.ruby.RequestType.ST.hit_latency_hist_seqr::gmean            1                       (Unspecified)
system.ruby.RequestType.ST.hit_latency_hist_seqr |           0      0.00%      0.00% |     8579287    100.00%    100.00% |           0      0.00%    100.00% |           0      0.00%    100.00% |           0      0.00%    100.00% |           0      0.00%    100.00% |           0      0.00%    100.00% |           0      0.00%    100.00% |           0      0.00%    100.00% |           0      0.00%    100.00% (Unspecified)
system.ruby.RequestType.ST.hit_latency_hist_seqr::total      8579287                       (Unspecified)
system.ruby.clk_domain.clock                      250                       # Clock period in ticks (Tick)
system.ruby.dir_cntrl0.power_state.pwrStateResidencyTicks::UNDEFINED   2147483750                       # Cumulative time (in ticks) in various power states (Tick)
system.ruby.dir_cntrl0.requestToDir.m_msg_count        53525                       # Number of messages passed the buffer (Count)
system.ruby.dir_cntrl0.requestToDir.m_buf_msgs     0.006231                       # Average number of messages in buffer ((Count/Tick))
system.ruby.dir_cntrl0.responseToDir.m_msg_count        53464                       # Number of messages passed the buffer (Count)
system.ruby.dir_cntrl0.responseToDir.m_buf_msgs     0.006224                       # Average number of messages in buffer ((Count/Tick))
system.ruby.dir_cntrl1.power_state.pwrStateResidencyTicks::UNDEFINED   2147483750                       # Cumulative time (in ticks) in various power states (Tick)
system.ruby.dir_cntrl1.requestToDir.m_msg_count        53681                       # Number of messages passed the buffer (Count)
system.ruby.dir_cntrl1.requestToDir.m_buf_msgs     0.006249                       # Average number of messages in buffer ((Count/Tick))
system.ruby.dir_cntrl1.responseToDir.m_msg_count        53074                       # Number of messages passed the buffer (Count)
system.ruby.dir_cntrl1.responseToDir.m_buf_msgs     0.006179                       # Average number of messages in buffer ((Count/Tick))
system.ruby.dir_cntrl10.power_state.pwrStateResidencyTicks::UNDEFINED   2147483750                       # Cumulative time (in ticks) in various power states (Tick)
system.ruby.dir_cntrl10.requestToDir.m_msg_count        53327                       # Number of messages passed the buffer (Count)
system.ruby.dir_cntrl10.requestToDir.m_buf_msgs     0.006208                       # Average number of messages in buffer ((Count/Tick))
system.ruby.dir_cntrl10.responseToDir.m_msg_count        53851                       # Number of messages passed the buffer (Count)
system.ruby.dir_cntrl10.responseToDir.m_buf_msgs     0.006269                       # Average number of messages in buffer ((Count/Tick))
system.ruby.dir_cntrl100.power_state.pwrStateResidencyTicks::UNDEFINED   2147483750                       # Cumulative time (in ticks) in various power states (Tick)
system.ruby.dir_cntrl100.requestToDir.m_msg_count        53807                       # Number of messages passed the buffer (Count)
system.ruby.dir_cntrl100.requestToDir.m_buf_msgs     0.006264                       # Average number of messages in buffer ((Count/Tick))
system.ruby.dir_cntrl100.responseToDir.m_msg_count        53741                       # Number of messages passed the buffer (Count)
system.ruby.dir_cntrl100.responseToDir.m_buf_msgs     0.006256                       # Average number of messages in buffer ((Count/Tick))
system.ruby.dir_cntrl101.power_state.pwrStateResidencyTicks::UNDEFINED   2147483750                       # Cumulative time (in ticks) in various power states (Tick)
system.ruby.dir_cntrl101.requestToDir.m_msg_count        53436                       # Number of messages passed the buffer (Count)
system.ruby.dir_cntrl101.requestToDir.m_buf_msgs     0.006221                       # Average number of messages in buffer ((Count/Tick))
system.ruby.dir_cntrl101.responseToDir.m_msg_count        53965                       # Number of messages passed the buffer (Count)
system.ruby.dir_cntrl101.responseToDir.m_buf_msgs     0.006282                       # Average number of messages in buffer ((Count/Tick))
system.ruby.dir_cntrl102.power_state.pwrStateResidencyTicks::UNDEFINED   2147483750                       # Cumulative time (in ticks) in various power states (Tick)
system.ruby.dir_cntrl102.requestToDir.m_msg_count        53733                       # Number of messages passed the buffer (Count)
system.ruby.dir_cntrl102.requestToDir.m_buf_msgs     0.006255                       # Average number of messages in buffer ((Count/Tick))
system.ruby.dir_cntrl102.responseToDir.m_msg_count        54014                       # Number of messages passed the buffer (Count)
system.ruby.dir_cntrl102.responseToDir.m_buf_msgs     0.006288                       # Average number of messages in buffer ((Count/Tick))
system.ruby.dir_cntrl103.power_state.pwrStateResidencyTicks::UNDEFINED   2147483750                       # Cumulative time (in ticks) in various power states (Tick)
system.ruby.dir_cntrl103.requestToDir.m_msg_count        53567                       # Number of messages passed the buffer (Count)
system.ruby.dir_cntrl103.requestToDir.m_buf_msgs     0.006236                       # Average number of messages in buffer ((Count/Tick))
system.ruby.dir_cntrl103.responseToDir.m_msg_count        53376                       # Number of messages passed the buffer (Count)
system.ruby.dir_cntrl103.responseToDir.m_buf_msgs     0.006214                       # Average number of messages in buffer ((Count/Tick))
system.ruby.dir_cntrl104.power_state.pwrStateResidencyTicks::UNDEFINED   2147483750                       # Cumulative time (in ticks) in various power states (Tick)
system.ruby.dir_cntrl104.requestToDir.m_msg_count        53553                       # Number of messages passed the buffer (Count)
system.ruby.dir_cntrl104.requestToDir.m_buf_msgs     0.006234                       # Average number of messages in buffer ((Count/Tick))
system.ruby.dir_cntrl104.responseToDir.m_msg_count        53679                       # Number of messages passed the buffer (Count)
system.ruby.dir_cntrl104.responseToDir.m_buf_msgs     0.006249                       # Average number of messages in buffer ((Count/Tick))
system.ruby.dir_cntrl105.power_state.pwrStateResidencyTicks::UNDEFINED   2147483750                       # Cumulative time (in ticks) in various power states (Tick)
system.ruby.dir_cntrl105.requestToDir.m_msg_count        53720                       # Number of messages passed the buffer (Count)
system.ruby.dir_cntrl105.requestToDir.m_buf_msgs     0.006254                       # Average number of messages in buffer ((Count/Tick))
system.ruby.dir_cntrl105.responseToDir.m_msg_count        53996                       # Number of messages passed the buffer (Count)
system.ruby.dir_cntrl105.responseToDir.m_buf_msgs     0.006286                       # Average number of messages in buffer ((Count/Tick))
system.ruby.dir_cntrl106.power_state.pwrStateResidencyTicks::UNDEFINED   2147483750                       # Cumulative time (in ticks) in various power states (Tick)
system.ruby.dir_cntrl106.requestToDir.m_msg_count        53523                       # Number of messages passed the buffer (Count)
system.ruby.dir_cntrl106.requestToDir.m_buf_msgs     0.006231                       # Average number of messages in buffer ((Count/Tick))
system.ruby.dir_cntrl106.responseToDir.m_msg_count        53672                       # Number of messages passed the buffer (Count)
system.ruby.dir_cntrl106.responseToDir.m_buf_msgs     0.006248                       # Average number of messages in buffer ((Count/Tick))
system.ruby.dir_cntrl107.power_state.pwrStateResidencyTicks::UNDEFINED   2147483750                       # Cumulative time (in ticks) in various power states (Tick)
system.ruby.dir_cntrl107.requestToDir.m_msg_count        53281                       # Number of messages passed the buffer (Count)
system.ruby.dir_cntrl107.requestToDir.m_buf_msgs     0.006203                       # Average number of messages in buffer ((Count/Tick))
system.ruby.dir_cntrl107.responseToDir.m_msg_count        53821                       # Number of messages passed the buffer (Count)
system.ruby.dir_cntrl107.responseToDir.m_buf_msgs     0.006266                       # Average number of messages in buffer ((Count/Tick))
system.ruby.dir_cntrl108.power_state.pwrStateResidencyTicks::UNDEFINED   2147483750                       # Cumulative time (in ticks) in various power states (Tick)
system.ruby.dir_cntrl108.requestToDir.m_msg_count        53669                       # Number of messages passed the buffer (Count)
system.ruby.dir_cntrl108.requestToDir.m_buf_msgs     0.006248                       # Average number of messages in buffer ((Count/Tick))
system.ruby.dir_cntrl108.responseToDir.m_msg_count        53742                       # Number of messages passed the buffer (Count)
system.ruby.dir_cntrl108.responseToDir.m_buf_msgs     0.006256                       # Average number of messages in buffer ((Count/Tick))
system.ruby.dir_cntrl109.power_state.pwrStateResidencyTicks::UNDEFINED   2147483750                       # Cumulative time (in ticks) in various power states (Tick)
system.ruby.dir_cntrl109.requestToDir.m_msg_count        53729                       # Number of messages passed the buffer (Count)
system.ruby.dir_cntrl109.requestToDir.m_buf_msgs     0.006255                       # Average number of messages in buffer ((Count/Tick))
system.ruby.dir_cntrl109.responseToDir.m_msg_count        53454                       # Number of messages passed the buffer (Count)
system.ruby.dir_cntrl109.responseToDir.m_buf_msgs     0.006223                       # Average number of messages in buffer ((Count/Tick))
system.ruby.dir_cntrl11.power_state.pwrStateResidencyTicks::UNDEFINED   2147483750                       # Cumulative time (in ticks) in various power states (Tick)
system.ruby.dir_cntrl11.requestToDir.m_msg_count        53578                       # Number of messages passed the buffer (Count)
system.ruby.dir_cntrl11.requestToDir.m_buf_msgs     0.006237                       # Average number of messages in buffer ((Count/Tick))
system.ruby.dir_cntrl11.responseToDir.m_msg_count        53979                       # Number of messages passed the buffer (Count)
[...]
system.ruby.network.sankey.vcvn13.vcvn5             0                       (Unspecified)
system.ruby.network.sankey.vcvn13.vcvn6             0                       (Unspecified)
system.ruby.network.sankey.vcvn13.vcvn7             0                       (Unspecified)
system.ruby.network.sankey.vcvn13.vcvn8             0                       (Unspecified)
system.ruby.network.sankey.vcvn13.vcvn9             0                       (Unspecified)
system.ruby.network.sankey.vcvn14.vcvn0             0                       (Unspecified)
system.ruby.network.sankey.vcvn14.vcvn1             0                       (Unspecified)
system.ruby.network.sankey.vcvn14.vcvn10            0                       (Unspecified)
system.ruby.network.sankey.vcvn14.vcvn11            0                       (Unspecified)
system.ruby.network.sankey.vcvn14.vcvn12            0                       (Unspecified)
system.ruby.network.sankey.vcvn14.vcvn13            0                       (Unspecified)
system.ruby.network.sankey.vcvn14.vcvn14      9973295                       (Unspecified)
system.ruby.network.sankey.vcvn14.vcvn15            0                       (Unspecified)
system.ruby.network.sankey.vcvn14.vcvn16            0                       (Unspecified)
system.ruby.network.sankey.vcvn14.vcvn17            0                       (Unspecified)
system.ruby.network.sankey.vcvn14.vcvn2             0                       (Unspecified)
system.ruby.network.sankey.vcvn14.vcvn3             0                       (Unspecified)
system.ruby.network.sankey.vcvn14.vcvn4             0                       (Unspecified)
system.ruby.network.sankey.vcvn14.vcvn5             0                       (Unspecified)
system.ruby.network.sankey.vcvn14.vcvn6             0                       (Unspecified)
system.ruby.network.sankey.vcvn14.vcvn7             0                       (Unspecified)
system.ruby.network.sankey.vcvn14.vcvn8             0                       (Unspecified)
system.ruby.network.sankey.vcvn14.vcvn9             0                       (Unspecified)
system.ruby.network.sankey.vcvn15.vcvn0             0                       (Unspecified)
system.ruby.network.sankey.vcvn15.vcvn1             0                       (Unspecified)
system.ruby.network.sankey.vcvn15.vcvn10            0                       (Unspecified)
system.ruby.network.sankey.vcvn15.vcvn11            0                       (Unspecified)
system.ruby.network.sankey.vcvn15.vcvn12            0                       (Unspecified)
system.ruby.network.sankey.vcvn15.vcvn13            0                       (Unspecified)
system.ruby.network.sankey.vcvn15.vcvn14            0                       (Unspecified)
system.ruby.network.sankey.vcvn15.vcvn15      5369379                       (Unspecified)
system.ruby.network.sankey.vcvn15.vcvn16            0                       (Unspecified)
system.ruby.network.sankey.vcvn15.vcvn17            0                       (Unspecified)
system.ruby.network.sankey.vcvn15.vcvn2             0                       (Unspecified)
system.ruby.network.sankey.vcvn15.vcvn3             0                       (Unspecified)
system.ruby.network.sankey.vcvn15.vcvn4             0                       (Unspecified)
system.ruby.network.sankey.vcvn15.vcvn5             0                       (Unspecified)
system.ruby.network.sankey.vcvn15.vcvn6             0                       (Unspecified)
system.ruby.network.sankey.vcvn15.vcvn7             0                       (Unspecified)
system.ruby.network.sankey.vcvn15.vcvn8             0                       (Unspecified)
system.ruby.network.sankey.vcvn15.vcvn9             0                       (Unspecified)
system.ruby.network.sankey.vcvn16.vcvn0             0                       (Unspecified)
system.ruby.network.sankey.vcvn16.vcvn1             0                       (Unspecified)
system.ruby.network.sankey.vcvn16.vcvn10            0                       (Unspecified)
system.ruby.network.sankey.vcvn16.vcvn11            0                       (Unspecified)
system.ruby.network.sankey.vcvn16.vcvn12            0                       (Unspecified)
system.ruby.network.sankey.vcvn16.vcvn13            0                       (Unspecified)
system.ruby.network.sankey.vcvn16.vcvn14            0                       (Unspecified)
system.ruby.network.sankey.vcvn16.vcvn15            0                       (Unspecified)
system.ruby.network.sankey.vcvn16.vcvn16      5544857                       (Unspecified)
system.ruby.network.sankey.vcvn16.vcvn17            0                       (Unspecified)
system.ruby.network.sankey.vcvn16.vcvn2             0                       (Unspecified)
system.ruby.network.sankey.vcvn16.vcvn3             0                       (Unspecified)
system.ruby.network.sankey.vcvn16.vcvn4             0                       (Unspecified)
system.ruby.network.sankey.vcvn16.vcvn5             0                       (Unspecified)
system.ruby.network.sankey.vcvn16.vcvn6             0                       (Unspecified)
system.ruby.network.sankey.vcvn16.vcvn7             0                       (Unspecified)
system.ruby.network.sankey.vcvn16.vcvn8             0                       (Unspecified)
system.ruby.network.sankey.vcvn16.vcvn9             0                       (Unspecified)
system.ruby.network.sankey.vcvn17.vcvn0             0                       (Unspecified)
system.ruby.network.sankey.vcvn17.vcvn1             0                       (Unspecified)
system.ruby.network.sankey.vcvn17.vcvn10            0                       (Unspecified)
system.ruby.network.sankey.vcvn17.vcvn11            0                       (Unspecified)
system.ruby.network.sankey.vcvn17.vcvn12            0                       (Unspecified)
system.ruby.network.sankey.vcvn17.vcvn13            0                       (Unspecified)
system.ruby.network.sankey.vcvn17.vcvn14            0                       (Unspecified)
system.ruby.network.sankey.vcvn17.vcvn15            0                       (Unspecified)
system.ruby.network.sankey.vcvn17.vcvn16            0                       (Unspecified)
system.ruby.network.sankey.vcvn17.vcvn17      5091555                       (Unspecified)
system.ruby.network.sankey.vcvn17.vcvn2             0                       (Unspecified)
system.ruby.network.sankey.vcvn17.vcvn3             0                       (Unspecified)
system.ruby.network.sankey.vcvn17.vcvn4             0                       (Unspecified)
system.ruby.network.sankey.vcvn17.vcvn5             0                       (Unspecified)
system.ruby.network.sankey.vcvn17.vcvn6             0                       (Unspecified)
system.ruby.network.sankey.vcvn17.vcvn7             0                       (Unspecified)
system.ruby.network.sankey.vcvn17.vcvn8             0                       (Unspecified)
system.ruby.network.sankey.vcvn17.vcvn9             0                       (Unspecified)
system.ruby.network.sankey.vcvn2.vcvn0              0                       (Unspecified)
system.ruby.network.sankey.vcvn2.vcvn1              0                       (Unspecified)
system.ruby.network.sankey.vcvn2.vcvn10             0                       (Unspecified)
system.ruby.network.sankey.vcvn2.vcvn11             0                       (Unspecified)
system.ruby.network.sankey.vcvn2.vcvn12             0                       (Unspecified)
system.ruby.network.sankey.vcvn2.vcvn13             0                       (Unspecified)
system.ruby.network.sankey.vcvn2.vcvn14             0                       (Unspecified)
system.ruby.network.sankey.vcvn2.vcvn15             0                       (Unspecified)
system.ruby.network.sankey.vcvn2.vcvn16             0                       (Unspecified)
system.ruby.network.sankey.vcvn2.vcvn17             0                       (Unspecified)
system.ruby.network.sankey.vcvn2.vcvn2        2297322                       (Unspecified)
system.ruby.network.sankey.vcvn2.vcvn3              0                       (Unspecified)
system.ruby.network.sankey.vcvn2.vcvn4              0                       (Unspecified)
system.ruby.network.sankey.vcvn2.vcvn5              0                       (Unspecified)
system.ruby.network.sankey.vcvn2.vcvn6              0                       (Unspecified)
system.ruby.network.sankey.vcvn2.vcvn7              0                       (Unspecified)
system.ruby.network.sankey.vcvn2.vcvn8              0                       (Unspecified)
system.ruby.network.sankey.vcvn2.vcvn9              0                       (Unspecified)
system.ruby.network.sankey.vcvn3.vcvn0              0                       (Unspecified)
system.ruby.network.sankey.vcvn3.vcvn1              0                       (Unspecified)
system.ruby.network.sankey.vcvn3.vcvn10             0                       (Unspecified)
system.ruby.network.sankey.vcvn3.vcvn11             0                       (Unspecified)
system.ruby.network.sankey.vcvn3.vcvn12             0                       (Unspecified)
system.ruby.network.sankey.vcvn3.vcvn13             0                       (Unspecified)
system.ruby.network.sankey.vcvn3.vcvn14             0                       (Unspecified)
system.ruby.network.sankey.vcvn3.vcvn15             0                       (Unspecified)
system.ruby.network.sankey.vcvn3.vcvn16             0                       (Unspecified)
system.ruby.network.sankey.vcvn3.vcvn17             0                       (Unspecified)
system.ruby.network.sankey.vcvn3.vcvn2              0                       (Unspecified)
system.ruby.network.sankey.vcvn3.vcvn3        1175422                       (Unspecified)
system.ruby.network.sankey.vcvn3.vcvn4              0                       (Unspecified)
system.ruby.network.sankey.vcvn3.vcvn5              0                       (Unspecified)
system.ruby.network.sankey.vcvn3.vcvn6              0                       (Unspecified)
system.ruby.network.sankey.vcvn3.vcvn7              0                       (Unspecified)
system.ruby.network.sankey.vcvn3.vcvn8              0                       (Unspecified)
system.ruby.network.sankey.vcvn3.vcvn9              0                       (Unspecified)
system.ruby.network.sankey.vcvn4.vcvn0              0                       (Unspecified)
system.ruby.network.sankey.vcvn4.vcvn1              0                       (Unspecified)
system.ruby.network.sankey.vcvn4.vcvn10             0                       (Unspecified)
system.ruby.network.sankey.vcvn4.vcvn11             0                       (Unspecified)
system.ruby.network.sankey.vcvn4.vcvn12             0                       (Unspecified)
system.ruby.network.sankey.vcvn4.vcvn13             0                       (Unspecified)
system.ruby.network.sankey.vcvn4.vcvn14             0                       (Unspecified)
system.ruby.network.sankey.vcvn4.vcvn15             0                       (Unspecified)
system.ruby.network.sankey.vcvn4.vcvn16             0                       (Unspecified)
system.ruby.network.sankey.vcvn4.vcvn17             0                       (Unspecified)
system.ruby.network.sankey.vcvn4.vcvn2              0                       (Unspecified)
system.ruby.network.sankey.vcvn4.vcvn3              0                       (Unspecified)
system.ruby.network.sankey.vcvn4.vcvn4        1225656                       (Unspecified)
system.ruby.network.sankey.vcvn4.vcvn5              0                       (Unspecified)
system.ruby.network.sankey.vcvn4.vcvn6              0                       (Unspecified)
system.ruby.network.sankey.vcvn4.vcvn7              0                       (Unspecified)
system.ruby.network.sankey.vcvn4.vcvn8              0                       (Unspecified)
system.ruby.network.sankey.vcvn4.vcvn9              0                       (Unspecified)
system.ruby.network.sankey.vcvn5.vcvn0              0                       (Unspecified)
system.ruby.network.sankey.vcvn5.vcvn1              0                       (Unspecified)
system.ruby.network.sankey.vcvn5.vcvn10             0                       (Unspecified)
system.ruby.network.sankey.vcvn5.vcvn11             0                       (Unspecified)
system.ruby.network.sankey.vcvn5.vcvn12             0                       (Unspecified)
system.ruby.network.sankey.vcvn5.vcvn13             0                       (Unspecified)
system.ruby.network.sankey.vcvn5.vcvn14             0                       (Unspecified)
system.ruby.network.sankey.vcvn5.vcvn15             0                       (Unspecified)
system.ruby.network.sankey.vcvn5.vcvn16             0                       (Unspecified)
system.ruby.network.sankey.vcvn5.vcvn17             0                       (Unspecified)
system.ruby.network.sankey.vcvn5.vcvn2              0                       (Unspecified)
system.ruby.network.sankey.vcvn5.vcvn3              0                       (Unspecified)
system.ruby.network.sankey.vcvn5.vcvn4              0                       (Unspecified)
system.ruby.network.sankey.vcvn5.vcvn5        1024609                       (Unspecified)
system.ruby.network.sankey.vcvn5.vcvn6              0                       (Unspecified)
system.ruby.network.sankey.vcvn5.vcvn7              0                       (Unspecified)
system.ruby.network.sankey.vcvn5.vcvn8              0                       (Unspecified)
system.ruby.network.sankey.vcvn5.vcvn9              0                       (Unspecified)
system.ruby.network.sankey.vcvn6.vcvn0              0                       (Unspecified)
system.ruby.network.sankey.vcvn6.vcvn1              0                       (Unspecified)
system.ruby.network.sankey.vcvn6.vcvn10             0                       (Unspecified)
system.ruby.network.sankey.vcvn6.vcvn11             0                       (Unspecified)
system.ruby.network.sankey.vcvn6.vcvn12             0                       (Unspecified)
system.ruby.network.sankey.vcvn6.vcvn13             0                       (Unspecified)
system.ruby.network.sankey.vcvn6.vcvn14             0                       (Unspecified)
system.ruby.network.sankey.vcvn6.vcvn15             0                       (Unspecified)
system.ruby.network.sankey.vcvn6.vcvn16             0                       (Unspecified)
system.ruby.network.sankey.vcvn6.vcvn17             0                       (Unspecified)
system.ruby.network.sankey.vcvn6.vcvn2              0                       (Unspecified)
system.ruby.network.sankey.vcvn6.vcvn3              0                       (Unspecified)
system.ruby.network.sankey.vcvn6.vcvn4              0                       (Unspecified)
system.ruby.network.sankey.vcvn6.vcvn5              0                       (Unspecified)
system.ruby.network.sankey.vcvn6.vcvn6              0                       (Unspecified)
system.ruby.network.sankey.vcvn6.vcvn7              0                       (Unspecified)
system.ruby.network.sankey.vcvn6.vcvn8              0                       (Unspecified)
system.ruby.network.sankey.vcvn6.vcvn9              0                       (Unspecified)
system.ruby.network.sankey.vcvn7.vcvn0              0                       (Unspecified)
system.ruby.network.sankey.vcvn7.vcvn1              0                       (Unspecified)
system.ruby.network.sankey.vcvn7.vcvn10             0                       (Unspecified)
system.ruby.network.sankey.vcvn7.vcvn11             0                       (Unspecified)
system.ruby.network.sankey.vcvn7.vcvn12             0                       (Unspecified)
system.ruby.network.sankey.vcvn7.vcvn13             0                       (Unspecified)
system.ruby.network.sankey.vcvn7.vcvn14             0                       (Unspecified)
system.ruby.network.sankey.vcvn7.vcvn15             0                       (Unspecified)
system.ruby.network.sankey.vcvn7.vcvn16             0                       (Unspecified)
system.ruby.network.sankey.vcvn7.vcvn17             0                       (Unspecified)
system.ruby.network.sankey.vcvn7.vcvn2              0                       (Unspecified)
system.ruby.network.sankey.vcvn7.vcvn3              0                       (Unspecified)
system.ruby.network.sankey.vcvn7.vcvn4              0                       (Unspecified)
system.ruby.network.sankey.vcvn7.vcvn5              0                       (Unspecified)
system.ruby.network.sankey.vcvn7.vcvn6              0                       (Unspecified)
system.ruby.network.sankey.vcvn7.vcvn7              0                       (Unspecified)
system.ruby.network.sankey.vcvn7.vcvn8              0                       (Unspecified)
system.ruby.network.sankey.vcvn7.vcvn9              0                       (Unspecified)
system.ruby.network.sankey.vcvn8.vcvn0              0                       (Unspecified)
system.ruby.network.sankey.vcvn8.vcvn1              0                       (Unspecified)
system.ruby.network.sankey.vcvn8.vcvn10             0                       (Unspecified)
system.ruby.network.sankey.vcvn8.vcvn11             0                       (Unspecified)
system.ruby.network.sankey.vcvn8.vcvn12             0                       (Unspecified)
system.ruby.network.sankey.vcvn8.vcvn13             0                       (Unspecified)
system.ruby.network.sankey.vcvn8.vcvn14             0                       (Unspecified)
system.ruby.network.sankey.vcvn8.vcvn15             0                       (Unspecified)
system.ruby.network.sankey.vcvn8.vcvn16             0                       (Unspecified)
system.ruby.network.sankey.vcvn8.vcvn17             0                       (Unspecified)
system.ruby.network.sankey.vcvn8.vcvn2              0                       (Unspecified)
system.ruby.network.sankey.vcvn8.vcvn3              0                       (Unspecified)
system.ruby.network.sankey.vcvn8.vcvn4              0                       (Unspecified)
system.ruby.network.sankey.vcvn8.vcvn5              0                       (Unspecified)
system.ruby.network.sankey.vcvn8.vcvn6              0                       (Unspecified)
system.ruby.network.sankey.vcvn8.vcvn7              0                       (Unspecified)
system.ruby.network.sankey.vcvn8.vcvn8              0                       (Unspecified)
system.ruby.network.sankey.vcvn8.vcvn9              0                       (Unspecified)
system.ruby.network.sankey.vcvn9.vcvn0              0                       (Unspecified)
system.ruby.network.sankey.vcvn9.vcvn1              0                       (Unspecified)
system.ruby.network.sankey.vcvn9.vcvn10             0                       (Unspecified)
system.ruby.network.sankey.vcvn9.vcvn11             0                       (Unspecified)
system.ruby.network.sankey.vcvn9.vcvn12             0                       (Unspecified)
system.ruby.network.sankey.vcvn9.vcvn13             0                       (Unspecified)
system.ruby.network.sankey.vcvn9.vcvn14             0                       (Unspecified)
system.ruby.network.sankey.vcvn9.vcvn15             0                       (Unspecified)
system.ruby.network.sankey.vcvn9.vcvn16             0                       (Unspecified)
system.ruby.network.sankey.vcvn9.vcvn17             0                       (Unspecified)
system.ruby.network.sankey.vcvn9.vcvn2              0                       (Unspecified)
system.ruby.network.sankey.vcvn9.vcvn3              0                       (Unspecified)
system.ruby.network.sankey.vcvn9.vcvn4              0                       (Unspecified)
system.ruby.network.sankey.vcvn9.vcvn5              0                       (Unspecified)
system.ruby.network.sankey.vcvn9.vcvn6              0                       (Unspecified)
system.ruby.network.sankey.vcvn9.vcvn7              0                       (Unspecified)
system.ruby.network.sankey.vcvn9.vcvn8              0                       (Unspecified)
system.ruby.network.sankey.vcvn9.vcvn9              0                       (Unspecified)

---------- End Simulation Statistics   ----------
