gem5 Simulator System.  https://www.gem5.org
gem5 is copyrighted software; use the --copyright option for details.

gem5 version 22.0.0.2
gem5 compiled Jun 17 2023 14:31:12
gem5 started Nov 18 2023 15:48:30
gem5 executing on mnemosyne14.ecn.purdue.edu, pid 23144
command line: ./build/Garnet_standalone/gem5.fast -d ./synth_outputs/simple/2b/mixed/mclb_hops_4_6_40cpus_4xdirs_4.0GHz/coh/kite_large/0_15/ configs/auto_top/auto_top_synth.py --topology EscapeVirtualNetworks --noi_routers 20 --sim-cycles 2147483647 --injectionrate 0.15 --noc_clk 4.0GHz --sys-clock 4.0GHz --ruby-clock 4.0GHz --noi_clk 2.7GHz --router_map_file configs/topologies/paper_solutions/kite_large.map --flat_vn_map_file configs/topologies/vn_maps_mclb/kite_large_mclb_hops_4vns.vn --flat_nr_map_file configs/topologies/nr_list_mclb/kite_large_mclb.nrl --ruby --mem_or_coh coh --mem-size 320000000 --num-dirs 160 --num-cpus 40 --network garnet --mem-type SimpleMemory --routing-algorithm 2 --use_escape_vns --synth_traffic --vcs-per-vnet 6 --evn_deadlock_partition 2 --evn_n_deadlock_free 1 --evn_min_n_deadlock_free 4

info: Standard input is not a terminal, disabling listeners.
ingesting configs/topologies/vn_maps_mclb/kite_large_mclb_hops_4vns.vn
cpus(40)=[<m5.objects.GarnetSyntheticTraffic.GarnetSyntheticTraffic object at 0x7fa80823f080>, <m5.objects.GarnetSyntheticTraffic.GarnetSyntheticTraffic object at 0x7fa80823fda0>, <m5.objects.GarnetSyntheticTraffic.GarnetSyntheticTraffic object at 0x7fa807dbd0b8>, <m5.objects.GarnetSyntheticTraffic.GarnetSyntheticTraffic object at 0x7fa807dbd390>, <m5.objects.GarnetSyntheticTraffic.GarnetSyntheticTraffic object at 0x7fa807dbd668>, <m5.objects.GarnetSyntheticTraffic.GarnetSyntheticTraffic object at 0x7fa807dbd940>, <m5.objects.GarnetSyntheticTraffic.GarnetSyntheticTraffic object at 0x7fa807dbdc18>, <m5.objects.GarnetSyntheticTraffic.GarnetSyntheticTraffic object at 0x7fa807dbdef0>, <m5.objects.GarnetSyntheticTraffic.GarnetSyntheticTraffic object at 0x7fa807dc6208>, <m5.objects.GarnetSyntheticTraffic.GarnetSyntheticTraffic object at 0x7fa807dc64e0>, <m5.objects.GarnetSyntheticTraffic.GarnetSyntheticTraffic object at 0x7fa807dc67b8>, <m5.objects.GarnetSyntheticTraffic.GarnetSyntheticTraffic object at 0x7fa807dc6a90>, <m5.objects.GarnetSyntheticTraffic.GarnetSyntheticTraffic object at 0x7fa80823f898>, <m5.objects.GarnetSyntheticTraffic.GarnetSyntheticTraffic object at 0x7fa808230e10>, <m5.objects.GarnetSyntheticTraffic.GarnetSyntheticTraffic object at 0x7fa80823a748>, <m5.objects.GarnetSyntheticTraffic.GarnetSyntheticTraffic object at 0x7fa80823ada0>, <m5.objects.GarnetSyntheticTraffic.GarnetSyntheticTraffic object at 0x7fa807dc6cf8>, <m5.objects.GarnetSyntheticTraffic.GarnetSyntheticTraffic object at 0x7fa807dc6fd0>, <m5.objects.GarnetSyntheticTraffic.GarnetSyntheticTraffic object at 0x7fa807dd22e8>, <m5.objects.GarnetSyntheticTraffic.GarnetSyntheticTraffic object at 0x7fa807dd25c0>, <m5.objects.GarnetSyntheticTraffic.GarnetSyntheticTraffic object at 0x7fa807dd2898>, <m5.objects.GarnetSyntheticTraffic.GarnetSyntheticTraffic object at 0x7fa807dd2b70>, <m5.objects.GarnetSyntheticTraffic.GarnetSyntheticTraffic object at 0x7fa807dd2e48>, <m5.objects.GarnetSyntheticTraffic.GarnetSyntheticTraffic object at 0x7fa807dd9160>, <m5.objects.GarnetSyntheticTraffic.GarnetSyntheticTraffic object at 0x7fa807dd9438>, <m5.objects.GarnetSyntheticTraffic.GarnetSyntheticTraffic object at 0x7fa807dd9710>, <m5.objects.GarnetSyntheticTraffic.GarnetSyntheticTraffic object at 0x7fa807dd99e8>, <m5.objects.GarnetSyntheticTraffic.GarnetSyntheticTraffic object at 0x7fa807dd9cc0>, <m5.objects.GarnetSyntheticTraffic.GarnetSyntheticTraffic object at 0x7fa807dd9f98>, <m5.objects.GarnetSyntheticTraffic.GarnetSyntheticTraffic object at 0x7fa807de12b0>, <m5.objects.GarnetSyntheticTraffic.GarnetSyntheticTraffic object at 0x7fa807de1588>, <m5.objects.GarnetSyntheticTraffic.GarnetSyntheticTraffic object at 0x7fa807de1860>, <m5.objects.GarnetSyntheticTraffic.GarnetSyntheticTraffic object at 0x7fa807de1b38>, <m5.objects.GarnetSyntheticTraffic.GarnetSyntheticTraffic object at 0x7fa807de1e10>, <m5.objects.GarnetSyntheticTraffic.GarnetSyntheticTraffic object at 0x7fa807dea128>, <m5.objects.GarnetSyntheticTraffic.GarnetSyntheticTraffic object at 0x7fa807dea400>, <m5.objects.GarnetSyntheticTraffic.GarnetSyntheticTraffic object at 0x7fa807dea6d8>, <m5.objects.GarnetSyntheticTraffic.GarnetSyntheticTraffic object at 0x7fa807dea9b0>, <m5.objects.GarnetSyntheticTraffic.GarnetSyntheticTraffic object at 0x7fa807deac88>, <m5.objects.GarnetSyntheticTraffic.GarnetSyntheticTraffic object at 0x7fa807deaf60>])
ingesting configs/topologies/nr_list_mclb/kite_large_mclb.nrl
ingesting configs/topologies/vn_maps_mclb/kite_large_mclb_hops_4vns.vn
ext_cdc_required = True
