
---------- Begin Simulation Statistics ----------
simSeconds                                   0.002147                       # Number of seconds simulated (Second)
simTicks                                   2147483750                       # Number of ticks simulated (Tick)
finalTick                                  2147483750                       # Number of ticks from beginning of simulation (restored from checkpoints and never reset) (Tick)
simFreq                                  1000000000000                       # The number of ticks per simulated second ((Tick/Second))
hostSeconds                                  12331.51                       # Real time elapsed on the host (Second)
hostTickRate                                   174146                       # The number of ticks simulated per host second (ticks/s) ((Tick/Second))
hostMemory                                   11223612                       # Number of bytes of host memory used (Byte)
system.clk_domain.clock                           250                       # Clock period in ticks (Tick)
system.cpu0.power_state.pwrStateResidencyTicks::UNDEFINED   2147483750                       # Cumulative time (in ticks) in various power states (Tick)
system.cpu1.power_state.pwrStateResidencyTicks::UNDEFINED   2147483750                       # Cumulative time (in ticks) in various power states (Tick)
system.cpu10.power_state.pwrStateResidencyTicks::UNDEFINED   2147483750                       # Cumulative time (in ticks) in various power states (Tick)
system.cpu11.power_state.pwrStateResidencyTicks::UNDEFINED   2147483750                       # Cumulative time (in ticks) in various power states (Tick)
system.cpu12.power_state.pwrStateResidencyTicks::UNDEFINED   2147483750                       # Cumulative time (in ticks) in various power states (Tick)
system.cpu13.power_state.pwrStateResidencyTicks::UNDEFINED   2147483750                       # Cumulative time (in ticks) in various power states (Tick)
system.cpu14.power_state.pwrStateResidencyTicks::UNDEFINED   2147483750                       # Cumulative time (in ticks) in various power states (Tick)
system.cpu15.power_state.pwrStateResidencyTicks::UNDEFINED   2147483750                       # Cumulative time (in ticks) in various power states (Tick)
system.cpu16.power_state.pwrStateResidencyTicks::UNDEFINED   2147483750                       # Cumulative time (in ticks) in various power states (Tick)
system.cpu17.power_state.pwrStateResidencyTicks::UNDEFINED   2147483750                       # Cumulative time (in ticks) in various power states (Tick)
system.cpu18.power_state.pwrStateResidencyTicks::UNDEFINED   2147483750                       # Cumulative time (in ticks) in various power states (Tick)
system.cpu19.power_state.pwrStateResidencyTicks::UNDEFINED   2147483750                       # Cumulative time (in ticks) in various power states (Tick)
system.cpu2.power_state.pwrStateResidencyTicks::UNDEFINED   2147483750                       # Cumulative time (in ticks) in various power states (Tick)
system.cpu20.power_state.pwrStateResidencyTicks::UNDEFINED   2147483750                       # Cumulative time (in ticks) in various power states (Tick)
system.cpu21.power_state.pwrStateResidencyTicks::UNDEFINED   2147483750                       # Cumulative time (in ticks) in various power states (Tick)
system.cpu22.power_state.pwrStateResidencyTicks::UNDEFINED   2147483750                       # Cumulative time (in ticks) in various power states (Tick)
system.cpu23.power_state.pwrStateResidencyTicks::UNDEFINED   2147483750                       # Cumulative time (in ticks) in various power states (Tick)
system.cpu24.power_state.pwrStateResidencyTicks::UNDEFINED   2147483750                       # Cumulative time (in ticks) in various power states (Tick)
system.cpu25.power_state.pwrStateResidencyTicks::UNDEFINED   2147483750                       # Cumulative time (in ticks) in various power states (Tick)
system.cpu26.power_state.pwrStateResidencyTicks::UNDEFINED   2147483750                       # Cumulative time (in ticks) in various power states (Tick)
system.cpu27.power_state.pwrStateResidencyTicks::UNDEFINED   2147483750                       # Cumulative time (in ticks) in various power states (Tick)
system.cpu28.power_state.pwrStateResidencyTicks::UNDEFINED   2147483750                       # Cumulative time (in ticks) in various power states (Tick)
system.cpu29.power_state.pwrStateResidencyTicks::UNDEFINED   2147483750                       # Cumulative time (in ticks) in various power states (Tick)
system.cpu3.power_state.pwrStateResidencyTicks::UNDEFINED   2147483750                       # Cumulative time (in ticks) in various power states (Tick)
system.cpu30.power_state.pwrStateResidencyTicks::UNDEFINED   2147483750                       # Cumulative time (in ticks) in various power states (Tick)
system.cpu31.power_state.pwrStateResidencyTicks::UNDEFINED   2147483750                       # Cumulative time (in ticks) in various power states (Tick)
system.cpu32.power_state.pwrStateResidencyTicks::UNDEFINED   2147483750                       # Cumulative time (in ticks) in various power states (Tick)
system.cpu33.power_state.pwrStateResidencyTicks::UNDEFINED   2147483750                       # Cumulative time (in ticks) in various power states (Tick)
system.cpu34.power_state.pwrStateResidencyTicks::UNDEFINED   2147483750                       # Cumulative time (in ticks) in various power states (Tick)
system.cpu35.power_state.pwrStateResidencyTicks::UNDEFINED   2147483750                       # Cumulative time (in ticks) in various power states (Tick)
system.cpu36.power_state.pwrStateResidencyTicks::UNDEFINED   2147483750                       # Cumulative time (in ticks) in various power states (Tick)
system.cpu37.power_state.pwrStateResidencyTicks::UNDEFINED   2147483750                       # Cumulative time (in ticks) in various power states (Tick)
system.cpu38.power_state.pwrStateResidencyTicks::UNDEFINED   2147483750                       # Cumulative time (in ticks) in various power states (Tick)
system.cpu39.power_state.pwrStateResidencyTicks::UNDEFINED   2147483750                       # Cumulative time (in ticks) in various power states (Tick)
system.cpu4.power_state.pwrStateResidencyTicks::UNDEFINED   2147483750                       # Cumulative time (in ticks) in various power states (Tick)
system.cpu40.power_state.pwrStateResidencyTicks::UNDEFINED   2147483750                       # Cumulative time (in ticks) in various power states (Tick)
system.cpu41.power_state.pwrStateResidencyTicks::UNDEFINED   2147483750                       # Cumulative time (in ticks) in various power states (Tick)
system.cpu42.power_state.pwrStateResidencyTicks::UNDEFINED   2147483750                       # Cumulative time (in ticks) in various power states (Tick)
system.cpu43.power_state.pwrStateResidencyTicks::UNDEFINED   2147483750                       # Cumulative time (in ticks) in various power states (Tick)
system.cpu44.power_state.pwrStateResidencyTicks::UNDEFINED   2147483750                       # Cumulative time (in ticks) in various power states (Tick)
system.cpu45.power_state.pwrStateResidencyTicks::UNDEFINED   2147483750                       # Cumulative time (in ticks) in various power states (Tick)
system.cpu46.power_state.pwrStateResidencyTicks::UNDEFINED   2147483750                       # Cumulative time (in ticks) in various power states (Tick)
system.cpu47.power_state.pwrStateResidencyTicks::UNDEFINED   2147483750                       # Cumulative time (in ticks) in various power states (Tick)
system.cpu48.power_state.pwrStateResidencyTicks::UNDEFINED   2147483750                       # Cumulative time (in ticks) in various power states (Tick)
system.cpu49.power_state.pwrStateResidencyTicks::UNDEFINED   2147483750                       # Cumulative time (in ticks) in various power states (Tick)
system.cpu5.power_state.pwrStateResidencyTicks::UNDEFINED   2147483750                       # Cumulative time (in ticks) in various power states (Tick)
system.cpu50.power_state.pwrStateResidencyTicks::UNDEFINED   2147483750                       # Cumulative time (in ticks) in various power states (Tick)
system.cpu51.power_state.pwrStateResidencyTicks::UNDEFINED   2147483750                       # Cumulative time (in ticks) in various power states (Tick)
system.cpu52.power_state.pwrStateResidencyTicks::UNDEFINED   2147483750                       # Cumulative time (in ticks) in various power states (Tick)
system.cpu53.power_state.pwrStateResidencyTicks::UNDEFINED   2147483750                       # Cumulative time (in ticks) in various power states (Tick)
system.cpu54.power_state.pwrStateResidencyTicks::UNDEFINED   2147483750                       # Cumulative time (in ticks) in various power states (Tick)
system.cpu55.power_state.pwrStateResidencyTicks::UNDEFINED   2147483750                       # Cumulative time (in ticks) in various power states (Tick)
system.cpu56.power_state.pwrStateResidencyTicks::UNDEFINED   2147483750                       # Cumulative time (in ticks) in various power states (Tick)
system.cpu57.power_state.pwrStateResidencyTicks::UNDEFINED   2147483750                       # Cumulative time (in ticks) in various power states (Tick)
system.cpu58.power_state.pwrStateResidencyTicks::UNDEFINED   2147483750                       # Cumulative time (in ticks) in various power states (Tick)
system.cpu59.power_state.pwrStateResidencyTicks::UNDEFINED   2147483750                       # Cumulative time (in ticks) in various power states (Tick)
system.cpu6.power_state.pwrStateResidencyTicks::UNDEFINED   2147483750                       # Cumulative time (in ticks) in various power states (Tick)
system.cpu60.power_state.pwrStateResidencyTicks::UNDEFINED   2147483750                       # Cumulative time (in ticks) in various power states (Tick)
system.cpu61.power_state.pwrStateResidencyTicks::UNDEFINED   2147483750                       # Cumulative time (in ticks) in various power states (Tick)
system.cpu62.power_state.pwrStateResidencyTicks::UNDEFINED   2147483750                       # Cumulative time (in ticks) in various power states (Tick)
system.cpu63.power_state.pwrStateResidencyTicks::UNDEFINED   2147483750                       # Cumulative time (in ticks) in various power states (Tick)
system.cpu7.power_state.pwrStateResidencyTicks::UNDEFINED   2147483750                       # Cumulative time (in ticks) in various power states (Tick)
system.cpu8.power_state.pwrStateResidencyTicks::UNDEFINED   2147483750                       # Cumulative time (in ticks) in various power states (Tick)
system.cpu9.power_state.pwrStateResidencyTicks::UNDEFINED   2147483750                       # Cumulative time (in ticks) in various power states (Tick)
system.mem_ctrls0.power_state.pwrStateResidencyTicks::UNDEFINED   2147483750                       # Cumulative time (in ticks) in various power states (Tick)
system.mem_ctrls1.power_state.pwrStateResidencyTicks::UNDEFINED   2147483750                       # Cumulative time (in ticks) in various power states (Tick)
system.mem_ctrls10.power_state.pwrStateResidencyTicks::UNDEFINED   2147483750                       # Cumulative time (in ticks) in various power states (Tick)
system.mem_ctrls11.power_state.pwrStateResidencyTicks::UNDEFINED   2147483750                       # Cumulative time (in ticks) in various power states (Tick)
system.mem_ctrls12.power_state.pwrStateResidencyTicks::UNDEFINED   2147483750                       # Cumulative time (in ticks) in various power states (Tick)
system.mem_ctrls13.power_state.pwrStateResidencyTicks::UNDEFINED   2147483750                       # Cumulative time (in ticks) in various power states (Tick)
system.mem_ctrls14.power_state.pwrStateResidencyTicks::UNDEFINED   2147483750                       # Cumulative time (in ticks) in various power states (Tick)
system.mem_ctrls15.power_state.pwrStateResidencyTicks::UNDEFINED   2147483750                       # Cumulative time (in ticks) in various power states (Tick)
system.mem_ctrls16.power_state.pwrStateResidencyTicks::UNDEFINED   2147483750                       # Cumulative time (in ticks) in various power states (Tick)
system.mem_ctrls17.power_state.pwrStateResidencyTicks::UNDEFINED   2147483750                       # Cumulative time (in ticks) in various power states (Tick)
system.mem_ctrls18.power_state.pwrStateResidencyTicks::UNDEFINED   2147483750                       # Cumulative time (in ticks) in various power states (Tick)
system.mem_ctrls19.power_state.pwrStateResidencyTicks::UNDEFINED   2147483750                       # Cumulative time (in ticks) in various power states (Tick)
system.mem_ctrls2.power_state.pwrStateResidencyTicks::UNDEFINED   2147483750                       # Cumulative time (in ticks) in various power states (Tick)
system.mem_ctrls20.power_state.pwrStateResidencyTicks::UNDEFINED   2147483750                       # Cumulative time (in ticks) in various power states (Tick)
system.mem_ctrls21.power_state.pwrStateResidencyTicks::UNDEFINED   2147483750                       # Cumulative time (in ticks) in various power states (Tick)
system.mem_ctrls22.power_state.pwrStateResidencyTicks::UNDEFINED   2147483750                       # Cumulative time (in ticks) in various power states (Tick)
system.mem_ctrls23.power_state.pwrStateResidencyTicks::UNDEFINED   2147483750                       # Cumulative time (in ticks) in various power states (Tick)
system.mem_ctrls24.power_state.pwrStateResidencyTicks::UNDEFINED   2147483750                       # Cumulative time (in ticks) in various power states (Tick)
system.mem_ctrls25.power_state.pwrStateResidencyTicks::UNDEFINED   2147483750                       # Cumulative time (in ticks) in various power states (Tick)
system.mem_ctrls26.power_state.pwrStateResidencyTicks::UNDEFINED   2147483750                       # Cumulative time (in ticks) in various power states (Tick)
system.mem_ctrls27.power_state.pwrStateResidencyTicks::UNDEFINED   2147483750                       # Cumulative time (in ticks) in various power states (Tick)
system.mem_ctrls28.power_state.pwrStateResidencyTicks::UNDEFINED   2147483750                       # Cumulative time (in ticks) in various power states (Tick)
system.mem_ctrls29.power_state.pwrStateResidencyTicks::UNDEFINED   2147483750                       # Cumulative time (in ticks) in various power states (Tick)
system.mem_ctrls3.power_state.pwrStateResidencyTicks::UNDEFINED   2147483750                       # Cumulative time (in ticks) in various power states (Tick)
system.mem_ctrls30.power_state.pwrStateResidencyTicks::UNDEFINED   2147483750                       # Cumulative time (in ticks) in various power states (Tick)
system.mem_ctrls31.power_state.pwrStateResidencyTicks::UNDEFINED   2147483750                       # Cumulative time (in ticks) in various power states (Tick)
system.mem_ctrls32.power_state.pwrStateResidencyTicks::UNDEFINED   2147483750                       # Cumulative time (in ticks) in various power states (Tick)
system.mem_ctrls33.power_state.pwrStateResidencyTicks::UNDEFINED   2147483750                       # Cumulative time (in ticks) in various power states (Tick)
system.mem_ctrls34.power_state.pwrStateResidencyTicks::UNDEFINED   2147483750                       # Cumulative time (in ticks) in various power states (Tick)
system.mem_ctrls35.power_state.pwrStateResidencyTicks::UNDEFINED   2147483750                       # Cumulative time (in ticks) in various power states (Tick)
system.mem_ctrls36.power_state.pwrStateResidencyTicks::UNDEFINED   2147483750                       # Cumulative time (in ticks) in various power states (Tick)
system.mem_ctrls37.power_state.pwrStateResidencyTicks::UNDEFINED   2147483750                       # Cumulative time (in ticks) in various power states (Tick)
system.mem_ctrls38.power_state.pwrStateResidencyTicks::UNDEFINED   2147483750                       # Cumulative time (in ticks) in various power states (Tick)
system.mem_ctrls39.power_state.pwrStateResidencyTicks::UNDEFINED   2147483750                       # Cumulative time (in ticks) in various power states (Tick)
system.mem_ctrls4.power_state.pwrStateResidencyTicks::UNDEFINED   2147483750                       # Cumulative time (in ticks) in various power states (Tick)
system.mem_ctrls40.power_state.pwrStateResidencyTicks::UNDEFINED   2147483750                       # Cumulative time (in ticks) in various power states (Tick)
system.mem_ctrls41.power_state.pwrStateResidencyTicks::UNDEFINED   2147483750                       # Cumulative time (in ticks) in various power states (Tick)
system.mem_ctrls42.power_state.pwrStateResidencyTicks::UNDEFINED   2147483750                       # Cumulative time (in ticks) in various power states (Tick)
system.mem_ctrls43.power_state.pwrStateResidencyTicks::UNDEFINED   2147483750                       # Cumulative time (in ticks) in various power states (Tick)
system.mem_ctrls44.power_state.pwrStateResidencyTicks::UNDEFINED   2147483750                       # Cumulative time (in ticks) in various power states (Tick)
system.mem_ctrls45.power_state.pwrStateResidencyTicks::UNDEFINED   2147483750                       # Cumulative time (in ticks) in various power states (Tick)
system.mem_ctrls46.power_state.pwrStateResidencyTicks::UNDEFINED   2147483750                       # Cumulative time (in ticks) in various power states (Tick)
system.mem_ctrls47.power_state.pwrStateResidencyTicks::UNDEFINED   2147483750                       # Cumulative time (in ticks) in various power states (Tick)
system.mem_ctrls48.power_state.pwrStateResidencyTicks::UNDEFINED   2147483750                       # Cumulative time (in ticks) in various power states (Tick)
system.mem_ctrls49.power_state.pwrStateResidencyTicks::UNDEFINED   2147483750                       # Cumulative time (in ticks) in various power states (Tick)
system.mem_ctrls5.power_state.pwrStateResidencyTicks::UNDEFINED   2147483750                       # Cumulative time (in ticks) in various power states (Tick)
system.mem_ctrls50.power_state.pwrStateResidencyTicks::UNDEFINED   2147483750                       # Cumulative time (in ticks) in various power states (Tick)
system.mem_ctrls51.power_state.pwrStateResidencyTicks::UNDEFINED   2147483750                       # Cumulative time (in ticks) in various power states (Tick)
system.mem_ctrls52.power_state.pwrStateResidencyTicks::UNDEFINED   2147483750                       # Cumulative time (in ticks) in various power states (Tick)
system.mem_ctrls53.power_state.pwrStateResidencyTicks::UNDEFINED   2147483750                       # Cumulative time (in ticks) in various power states (Tick)
system.mem_ctrls54.power_state.pwrStateResidencyTicks::UNDEFINED   2147483750                       # Cumulative time (in ticks) in various power states (Tick)
system.mem_ctrls55.power_state.pwrStateResidencyTicks::UNDEFINED   2147483750                       # Cumulative time (in ticks) in various power states (Tick)
system.mem_ctrls56.power_state.pwrStateResidencyTicks::UNDEFINED   2147483750                       # Cumulative time (in ticks) in various power states (Tick)
system.mem_ctrls57.power_state.pwrStateResidencyTicks::UNDEFINED   2147483750                       # Cumulative time (in ticks) in various power states (Tick)
system.mem_ctrls58.power_state.pwrStateResidencyTicks::UNDEFINED   2147483750                       # Cumulative time (in ticks) in various power states (Tick)
system.mem_ctrls59.power_state.pwrStateResidencyTicks::UNDEFINED   2147483750                       # Cumulative time (in ticks) in various power states (Tick)
system.mem_ctrls6.power_state.pwrStateResidencyTicks::UNDEFINED   2147483750                       # Cumulative time (in ticks) in various power states (Tick)
system.mem_ctrls60.power_state.pwrStateResidencyTicks::UNDEFINED   2147483750                       # Cumulative time (in ticks) in various power states (Tick)
system.mem_ctrls61.power_state.pwrStateResidencyTicks::UNDEFINED   2147483750                       # Cumulative time (in ticks) in various power states (Tick)
system.mem_ctrls62.power_state.pwrStateResidencyTicks::UNDEFINED   2147483750                       # Cumulative time (in ticks) in various power states (Tick)
system.mem_ctrls63.power_state.pwrStateResidencyTicks::UNDEFINED   2147483750                       # Cumulative time (in ticks) in various power states (Tick)
system.mem_ctrls7.power_state.pwrStateResidencyTicks::UNDEFINED   2147483750                       # Cumulative time (in ticks) in various power states (Tick)
system.mem_ctrls8.power_state.pwrStateResidencyTicks::UNDEFINED   2147483750                       # Cumulative time (in ticks) in various power states (Tick)
system.mem_ctrls9.power_state.pwrStateResidencyTicks::UNDEFINED   2147483750                       # Cumulative time (in ticks) in various power states (Tick)
system.ruby.m_outstandReqHistSeqr::bucket_size            1                       (Unspecified)
system.ruby.m_outstandReqHistSeqr::max_bucket            9                       (Unspecified)
system.ruby.m_outstandReqHistSeqr::samples     43930287                       (Unspecified)
system.ruby.m_outstandReqHistSeqr::mean             1                       (Unspecified)
system.ruby.m_outstandReqHistSeqr::gmean            1                       (Unspecified)
system.ruby.m_outstandReqHistSeqr        |           0      0.00%      0.00% |    43930287    100.00%    100.00% |           0      0.00%    100.00% |           0      0.00%    100.00% |           0      0.00%    100.00% |           0      0.00%    100.00% |           0      0.00%    100.00% |           0      0.00%    100.00% |           0      0.00%    100.00% |           0      0.00%    100.00% (Unspecified)
system.ruby.m_outstandReqHistSeqr::total     43930287                       (Unspecified)
system.ruby.m_latencyHistSeqr::bucket_size            1                       (Unspecified)
system.ruby.m_latencyHistSeqr::max_bucket            9                       (Unspecified)
system.ruby.m_latencyHistSeqr::samples       43930283                       (Unspecified)
system.ruby.m_latencyHistSeqr::mean                 1                       (Unspecified)
system.ruby.m_latencyHistSeqr::gmean                1                       (Unspecified)
system.ruby.m_latencyHistSeqr            |           0      0.00%      0.00% |    43930283    100.00%    100.00% |           0      0.00%    100.00% |           0      0.00%    100.00% |           0      0.00%    100.00% |           0      0.00%    100.00% |           0      0.00%    100.00% |           0      0.00%    100.00% |           0      0.00%    100.00% |           0      0.00%    100.00% (Unspecified)
system.ruby.m_latencyHistSeqr::total         43930283                       (Unspecified)
system.ruby.m_hitLatencyHistSeqr::bucket_size            1                       (Unspecified)
system.ruby.m_hitLatencyHistSeqr::max_bucket            9                       (Unspecified)
system.ruby.m_hitLatencyHistSeqr::samples     43930283                       (Unspecified)
system.ruby.m_hitLatencyHistSeqr::mean              1                       (Unspecified)
system.ruby.m_hitLatencyHistSeqr::gmean             1                       (Unspecified)
system.ruby.m_hitLatencyHistSeqr         |           0      0.00%      0.00% |    43930283    100.00%    100.00% |           0      0.00%    100.00% |           0      0.00%    100.00% |           0      0.00%    100.00% |           0      0.00%    100.00% |           0      0.00%    100.00% |           0      0.00%    100.00% |           0      0.00%    100.00% |           0      0.00%    100.00% (Unspecified)
system.ruby.m_hitLatencyHistSeqr::total      43930283                       (Unspecified)
system.ruby.Directory_Controller.Receive_Request |      228249      1.56%      1.56% |      228727      1.56%      3.12% |      229048      1.56%      4.69% |      229485      1.57%      6.25% |      228588      1.56%      7.81% |      228083      1.56%      9.37% |      228119      1.56%     10.93% |      229026      1.56%     12.50% |      229049      1.56%     14.06% |      229549      1.57%     15.63% |      228762      1.56%     17.19% |      229628      1.57%     18.76% |      228514      1.56%     20.32% |      228366      1.56%     21.88% |      227554      1.55%     23.43% |      229318      1.57%     25.00% |      228336      1.56%     26.56% |      229424      1.57%     28.13% |      229139      1.57%     29.69% |      228616      1.56%     31.25% |      228595      1.56%     32.82% |      228734      1.56%     34.38% |      228027      1.56%     35.94% |      228907      1.56%     37.50% |      228227      1.56%     39.06% |      228456      1.56%     40.62% |      229523      1.57%     42.19% |      228270      1.56%     43.74% |      229283      1.57%     45.31% |      227729      1.56%     46.87% |      229613      1.57%     48.43% |      228756      1.56%     50.00% |      228513      1.56%     51.56% |      229160      1.57%     53.12% |      229184      1.57%     54.69% |      229394      1.57%     56.26% |      229080      1.56%     57.82% |      228842      1.56%     59.38% |      228429      1.56%     60.94% |      228969      1.56%     62.51% |      228068      1.56%     64.07% |      228341      1.56%     65.63% |      229072      1.56%     67.19% |      228446      1.56%     68.75% |      229356      1.57%     70.32% |      229038      1.56%     71.88% |      228102      1.56%     73.44% |      228394      1.56%     75.00% |      227811      1.56%     76.56% |      229147      1.57%     78.12% |      228830      1.56%     79.68% |      228777      1.56%     81.25% |      228849      1.56%     82.81% |      228471      1.56%     84.37% |      228033      1.56%     85.93% |      228630      1.56%     87.49% |      229000      1.56%     89.05% |      227316      1.55%     90.61% |      229157      1.57%     92.17% |      229150      1.57%     93.74% |      229557      1.57%     95.31% |      229381      1.57%     96.87% |      228675      1.56%     98.43% |      229272      1.57%    100.00% (Unspecified)
system.ruby.Directory_Controller.Receive_Request::total     14640144                       (Unspecified)
system.ruby.Directory_Controller.Receive_Forward |      229356      1.57%      1.57% |      228697      1.56%      3.13% |      228734      1.56%      4.69% |      228820      1.56%      6.25% |      229351      1.57%      7.82% |      227809      1.56%      9.37% |      228613      1.56%     10.94% |      228074      1.56%     12.49% |      229794      1.57%     14.06% |      228803      1.56%     15.63% |      229557      1.57%     17.19% |      228934      1.56%     18.76% |      227875      1.56%     20.31% |      228824      1.56%     21.88% |      228738      1.56%     23.44% |      229033      1.56%     25.00% |      229347      1.57%     26.57% |      229385      1.57%     28.13% |      228099      1.56%     29.69% |      229041      1.56%     31.26% |      228632      1.56%     32.82% |      228966      1.56%     34.38% |      228219      1.56%     35.94% |      229267      1.57%     37.51% |      228831      1.56%     39.07% |      228747      1.56%     40.63% |      229405      1.57%     42.20% |      228323      1.56%     43.76% |      228188      1.56%     45.31% |      228456      1.56%     46.87% |      229270      1.57%     48.44% |      228667      1.56%     50.00% |      228780      1.56%     51.56% |      228211      1.56%     53.12% |      228938      1.56%     54.69% |      228740      1.56%     56.25% |      228699      1.56%     57.81% |      229452      1.57%     59.38% |      229588      1.57%     60.94% |      228960      1.56%     62.51% |      229119      1.56%     64.07% |      228416      1.56%     65.63% |      229014      1.56%     67.20% |      228467      1.56%     68.76% |      229058      1.56%     70.32% |      229527      1.57%     71.89% |      229437      1.57%     73.46% |      228548      1.56%     75.02% |      228290      1.56%     76.58% |      228647      1.56%     78.14% |      228271      1.56%     79.70% |      229394      1.57%     81.26% |      228314      1.56%     82.82% |      229203      1.57%     84.39% |      228335      1.56%     85.95% |      228704      1.56%     87.51% |      228808      1.56%     89.07% |      227872      1.56%     90.63% |      228757      1.56%     92.19% |      228105      1.56%     93.75% |      228729      1.56%     95.31% |      229452      1.57%     96.88% |      229085      1.56%     98.44% |      228498      1.56%    100.00% (Unspecified)
system.ruby.Directory_Controller.Receive_Forward::total     14643273                       (Unspecified)
system.ruby.Directory_Controller.Receive_Response |      138182      1.57%      1.57% |      137988      1.56%      3.13% |      137806      1.56%      4.69% |      138489      1.57%      6.26% |      137685      1.56%      7.82% |      137864      1.56%      9.38% |      137654      1.56%     10.94% |      137313      1.56%     12.50% |      137434      1.56%     14.05% |      138194      1.57%     15.62% |      137150      1.55%     17.17% |      137854      1.56%     18.74% |      137857      1.56%     20.30% |      138678      1.57%     21.87% |      137434      1.56%     23.43% |      138362      1.57%     24.99% |      138214      1.57%     26.56% |      137962      1.56%     28.12% |      138655      1.57%     29.69% |      137045      1.55%     31.25% |      137830      1.56%     32.81% |      137846      1.56%     34.37% |      137681      1.56%     35.93% |      137685      1.56%     37.49% |      137903      1.56%     39.05% |      138178      1.57%     40.62% |      137790      1.56%     42.18% |      137794      1.56%     43.74% |      137899      1.56%     45.30% |      138306      1.57%     46.87% |      137680      1.56%     48.43% |      137492      1.56%     49.99% |      138887      1.57%     51.56% |      137868      1.56%     53.12% |      137319      1.56%     54.68% |      138177      1.57%     56.25% |      137383      1.56%     57.80% |      137990      1.56%     59.37% |      138039      1.56%     60.93% |      137555      1.56%     62.49% |      138739      1.57%     64.06% |      137972      1.56%     65.62% |      138178      1.57%     67.19% |      138133      1.57%     68.75% |      138170      1.57%     70.32% |      137994      1.56%     71.88% |      138067      1.56%     73.45% |      138193      1.57%     75.01% |      138176      1.57%     76.58% |      137991      1.56%     78.14% |      137312      1.56%     79.70% |      138046      1.56%     81.26% |      137808      1.56%     82.82% |      138052      1.56%     84.39% |      137569      1.56%     85.95% |      137937      1.56%     87.51% |      137733      1.56%     89.07% |      137739      1.56%     90.63% |      138350      1.57%     92.20% |      137536      1.56%     93.76% |      138057      1.56%     95.32% |      137118      1.55%     96.87% |      137508      1.56%     98.43% |      138346      1.57%    100.00% (Unspecified)
system.ruby.Directory_Controller.Receive_Response::total      8825846                       (Unspecified)
system.ruby.Directory_Controller.I.Receive_Request |      228249      1.56%      1.56% |      228727      1.56%      3.12% |      229048      1.56%      4.69% |      229485      1.57%      6.25% |      228588      1.56%      7.81% |      228083      1.56%      9.37% |      228119      1.56%     10.93% |      229026      1.56%     12.50% |      229049      1.56%     14.06% |      229549      1.57%     15.63% |      228762      1.56%     17.19% |      229628      1.57%     18.76% |      228514      1.56%     20.32% |      228366      1.56%     21.88% |      227554      1.55%     23.43% |      229318      1.57%     25.00% |      228336      1.56%     26.56% |      229424      1.57%     28.13% |      229139      1.57%     29.69% |      228616      1.56%     31.25% |      228595      1.56%     32.82% |      228734      1.56%     34.38% |      228027      1.56%     35.94% |      228907      1.56%     37.50% |      228227      1.56%     39.06% |      228456      1.56%     40.62% |      229523      1.57%     42.19% |      228270      1.56%     43.74% |      229283      1.57%     45.31% |      227729      1.56%     46.87% |      229613      1.57%     48.43% |      228756      1.56%     50.00% |      228513      1.56%     51.56% |      229160      1.57%     53.12% |      229184      1.57%     54.69% |      229394      1.57%     56.26% |      229080      1.56%     57.82% |      228842      1.56%     59.38% |      228429      1.56%     60.94% |      228969      1.56%     62.51% |      228068      1.56%     64.07% |      228341      1.56%     65.63% |      229072      1.56%     67.19% |      228446      1.56%     68.75% |      229356      1.57%     70.32% |      229038      1.56%     71.88% |      228102      1.56%     73.44% |      228394      1.56%     75.00% |      227811      1.56%     76.56% |      229147      1.57%     78.12% |      228830      1.56%     79.68% |      228777      1.56%     81.25% |      228849      1.56%     82.81% |      228471      1.56%     84.37% |      228033      1.56%     85.93% |      228630      1.56%     87.49% |      229000      1.56%     89.05% |      227316      1.55%     90.61% |      229157      1.57%     92.17% |      229150      1.57%     93.74% |      229557      1.57%     95.31% |      229381      1.57%     96.87% |      228675      1.56%     98.43% |      229272      1.57%    100.00% (Unspecified)
system.ruby.Directory_Controller.I.Receive_Request::total     14640144                       (Unspecified)
system.ruby.Directory_Controller.I.Receive_Forward |      229356      1.57%      1.57% |      228697      1.56%      3.13% |      228734      1.56%      4.69% |      228820      1.56%      6.25% |      229351      1.57%      7.82% |      227809      1.56%      9.37% |      228613      1.56%     10.94% |      228074      1.56%     12.49% |      229794      1.57%     14.06% |      228803      1.56%     15.63% |      229557      1.57%     17.19% |      228934      1.56%     18.76% |      227875      1.56%     20.31% |      228824      1.56%     21.88% |      228738      1.56%     23.44% |      229033      1.56%     25.00% |      229347      1.57%     26.57% |      229385      1.57%     28.13% |      228099      1.56%     29.69% |      229041      1.56%     31.26% |      228632      1.56%     32.82% |      228966      1.56%     34.38% |      228219      1.56%     35.94% |      229267      1.57%     37.51% |      228831      1.56%     39.07% |      228747      1.56%     40.63% |      229405      1.57%     42.20% |      228323      1.56%     43.76% |      228188      1.56%     45.31% |      228456      1.56%     46.87% |      229270      1.57%     48.44% |      228667      1.56%     50.00% |      228780      1.56%     51.56% |      228211      1.56%     53.12% |      228938      1.56%     54.69% |      228740      1.56%     56.25% |      228699      1.56%     57.81% |      229452      1.57%     59.38% |      229588      1.57%     60.94% |      228960      1.56%     62.51% |      229119      1.56%     64.07% |      228416      1.56%     65.63% |      229014      1.56%     67.20% |      228467      1.56%     68.76% |      229058      1.56%     70.32% |      229527      1.57%     71.89% |      229437      1.57%     73.46% |      228548      1.56%     75.02% |      228290      1.56%     76.58% |      228647      1.56%     78.14% |      228271      1.56%     79.70% |      229394      1.57%     81.26% |      228314      1.56%     82.82% |      229203      1.57%     84.39% |      228335      1.56%     85.95% |      228704      1.56%     87.51% |      228808      1.56%     89.07% |      227872      1.56%     90.63% |      228757      1.56%     92.19% |      228105      1.56%     93.75% |      228729      1.56%     95.31% |      229452      1.57%     96.88% |      229085      1.56%     98.44% |      228498      1.56%    100.00% (Unspecified)
system.ruby.Directory_Controller.I.Receive_Forward::total     14643273                       (Unspecified)
system.ruby.Directory_Controller.I.Receive_Response |      138182      1.57%      1.57% |      137988      1.56%      3.13% |      137806      1.56%      4.69% |      138489      1.57%      6.26% |      137685      1.56%      7.82% |      137864      1.56%      9.38% |      137654      1.56%     10.94% |      137313      1.56%     12.50% |      137434      1.56%     14.05% |      138194      1.57%     15.62% |      137150      1.55%     17.17% |      137854      1.56%     18.74% |      137857      1.56%     20.30% |      138678      1.57%     21.87% |      137434      1.56%     23.43% |      138362      1.57%     24.99% |      138214      1.57%     26.56% |      137962      1.56%     28.12% |      138655      1.57%     29.69% |      137045      1.55%     31.25% |      137830      1.56%     32.81% |      137846      1.56%     34.37% |      137681      1.56%     35.93% |      137685      1.56%     37.49% |      137903      1.56%     39.05% |      138178      1.57%     40.62% |      137790      1.56%     42.18% |      137794      1.56%     43.74% |      137899      1.56%     45.30% |      138306      1.57%     46.87% |      137680      1.56%     48.43% |      137492      1.56%     49.99% |      138887      1.57%     51.56% |      137868      1.56%     53.12% |      137319      1.56%     54.68% |      138177      1.57%     56.25% |      137383      1.56%     57.80% |      137990      1.56%     59.37% |      138039      1.56%     60.93% |      137555      1.56%     62.49% |      138739      1.57%     64.06% |      137972      1.56%     65.62% |      138178      1.57%     67.19% |      138133      1.57%     68.75% |      138170      1.57%     70.32% |      137994      1.56%     71.88% |      138067      1.56%     73.45% |      138193      1.57%     75.01% |      138176      1.57%     76.58% |      137991      1.56%     78.14% |      137312      1.56%     79.70% |      138046      1.56%     81.26% |      137808      1.56%     82.82% |      138052      1.56%     84.39% |      137569      1.56%     85.95% |      137937      1.56%     87.51% |      137733      1.56%     89.07% |      137739      1.56%     90.63% |      138350      1.57%     92.20% |      137536      1.56%     93.76% |      138057      1.56%     95.32% |      137118      1.55%     96.87% |      137508      1.56%     98.43% |      138346      1.57%    100.00% (Unspecified)
system.ruby.Directory_Controller.I.Receive_Response::total      8825846                       (Unspecified)
system.ruby.L1Cache_Controller.Request   |      229787      1.57%      1.57% |      229338      1.57%      3.14% |      228604      1.56%      4.70% |      229633      1.57%      6.27% |      228935      1.56%      7.83% |      228866      1.56%      9.39% |      228152      1.56%     10.95% |      228364      1.56%     12.51% |      228674      1.56%     14.07% |      228443      1.56%     15.63% |      228254      1.56%     17.19% |      228841      1.56%     18.76% |      229512      1.57%     20.32% |      228725      1.56%     21.89% |      228640      1.56%     23.45% |      228871      1.56%     25.01% |      228796      1.56%     26.57% |      228780      1.56%     28.14% |      229241      1.57%     29.70% |      229390      1.57%     31.27% |      228153      1.56%     32.83% |      228539      1.56%     34.39% |      228803      1.56%     35.95% |      228939      1.56%     37.52% |      229045      1.56%     39.08% |      228536      1.56%     40.64% |      228733      1.56%     42.20% |      229107      1.56%     43.77% |      228761      1.56%     45.33% |      229492      1.57%     46.90% |      229183      1.57%     48.46% |      229045      1.56%     50.03% |      227964      1.56%     51.59% |      228604      1.56%     53.15% |      227793      1.56%     54.70% |      228540      1.56%     56.26% |      228716      1.56%     57.83% |      228853      1.56%     59.39% |      229139      1.57%     60.95% |      227754      1.56%     62.51% |      228285      1.56%     64.07% |      228553      1.56%     65.63% |      229207      1.57%     67.20% |      229252      1.57%     68.76% |      228103      1.56%     70.32% |      228372      1.56%     71.88% |      229229      1.57%     73.45% |      228109      1.56%     75.00% |      228700      1.56%     76.57% |      230121      1.57%     78.14% |      228135      1.56%     79.70% |      228460      1.56%     81.26% |      228548      1.56%     82.82% |      228928      1.56%     84.38% |      228942      1.56%     85.94% |      229407      1.57%     87.51% |      228902      1.56%     89.08% |      228411      1.56%     90.64% |      228408      1.56%     92.20% |      229188      1.57%     93.76% |      228551      1.56%     95.32% |      228602      1.56%     96.88% |      228135      1.56%     98.44% |      228095      1.56%    100.00% (Unspecified)
system.ruby.L1Cache_Controller.Request::total     14640188                       (Unspecified)
system.ruby.L1Cache_Controller.Forward   |      229346      1.57%      1.57% |      228750      1.56%      3.13% |      228464      1.56%      4.69% |      229236      1.57%      6.25% |      228244      1.56%      7.81% |      228528      1.56%      9.37% |      227695      1.55%     10.93% |      229024      1.56%     12.49% |      229127      1.56%     14.06% |      228920      1.56%     15.62% |      229032      1.56%     17.18% |      229032      1.56%     18.75% |      229664      1.57%     20.32% |      229588      1.57%     21.88% |      229229      1.57%     23.45% |      227738      1.56%     25.01% |      227853      1.56%     26.56% |      229087      1.56%     28.13% |      228971      1.56%     29.69% |      228299      1.56%     31.25% |      229065      1.56%     32.81% |      228746      1.56%     34.37% |      228327      1.56%     35.93% |      228875      1.56%     37.50% |      228591      1.56%     39.06% |      228642      1.56%     40.62% |      228564      1.56%     42.18% |      228868      1.56%     43.74% |      228907      1.56%     45.31% |      229753      1.57%     46.88% |      229212      1.57%     48.44% |      228920      1.56%     50.00% |      228296      1.56%     51.56% |      229424      1.57%     53.13% |      228475      1.56%     54.69% |      228753      1.56%     56.25% |      228229      1.56%     57.81% |      228573      1.56%     59.37% |      228405      1.56%     60.93% |      227976      1.56%     62.49% |      229361      1.57%     64.06% |      229272      1.57%     65.62% |      228130      1.56%     67.18% |      229197      1.57%     68.74% |      228527      1.56%     70.30% |      228807      1.56%     71.87% |      228502      1.56%     73.43% |      228673      1.56%     74.99% |      229277      1.57%     76.55% |      229194      1.57%     78.12% |      228660      1.56%     79.68% |      229215      1.57%     81.25% |      229796      1.57%     82.82% |      228620      1.56%     84.38% |      228045      1.56%     85.93% |      229134      1.56%     87.50% |      229055      1.56%     89.06% |      229072      1.56%     90.63% |      227995      1.56%     92.19% |      228879      1.56%     93.75% |      228550      1.56%     95.31% |      228683      1.56%     96.87% |      229560      1.57%     98.44% |      228692      1.56%    100.00% (Unspecified)
system.ruby.L1Cache_Controller.Forward::total     14643324                       (Unspecified)
system.ruby.L1Cache_Controller.Response  |      228617      1.56%      1.56% |      229050      1.56%      3.12% |      228977      1.56%      4.69% |      228756      1.56%      6.25% |      229476      1.57%      7.82% |      227587      1.55%      9.37% |      229076      1.56%     10.93% |      227587      1.55%     12.49% |      228004      1.56%     14.04% |      228962      1.56%     15.61% |      229010      1.56%     17.17% |      228045      1.56%     18.73% |      228927      1.56%     20.29% |      228526      1.56%     21.85% |      229319      1.57%     23.42% |      228667      1.56%     24.98% |      228421      1.56%     26.54% |      228745      1.56%     28.10% |      229458      1.57%     29.67% |      228504      1.56%     31.23% |      229327      1.57%     32.79% |      228927      1.56%     34.36% |      229179      1.56%     35.92% |      229319      1.57%     37.49% |      228517      1.56%     39.05% |      228586      1.56%     40.61% |      228386      1.56%     42.17% |      228929      1.56%     43.73% |      229217      1.56%     45.29% |      228996      1.56%     46.86% |      229046      1.56%     48.42% |      229178      1.56%     49.99% |      228316      1.56%     51.54% |      228342      1.56%     53.10% |      228907      1.56%     54.67% |      229553      1.57%     56.23% |      228928      1.56%     57.80% |      228793      1.56%     59.36% |      228592      1.56%     60.92% |      229580      1.57%     62.49% |      228579      1.56%     64.05% |      229925      1.57%     65.62% |      228554      1.56%     67.18% |      229656      1.57%     68.75% |      227752      1.55%     70.30% |      228435      1.56%     71.86% |      228616      1.56%     73.42% |      229033      1.56%     74.99% |      228801      1.56%     76.55% |      229144      1.56%     78.11% |      229566      1.57%     79.68% |      228760      1.56%     81.24% |      228795      1.56%     82.80% |      229154      1.56%     84.37% |      228830      1.56%     85.93% |      228894      1.56%     87.49% |      229398      1.57%     89.06% |      228623      1.56%     90.62% |      229276      1.57%     92.18% |      227575      1.55%     93.74% |      228893      1.56%     95.30% |      229371      1.57%     96.87% |      229057      1.56%     98.43% |      229752      1.57%    100.00% (Unspecified)
system.ruby.L1Cache_Controller.Response::total     14646771                       (Unspecified)
system.ruby.L1Cache_Controller.I.Request |      229787      1.57%      1.57% |      229338      1.57%      3.14% |      228604      1.56%      4.70% |      229633      1.57%      6.27% |      228935      1.56%      7.83% |      228866      1.56%      9.39% |      228152      1.56%     10.95% |      228364      1.56%     12.51% |      228674      1.56%     14.07% |      228443      1.56%     15.63% |      228254      1.56%     17.19% |      228841      1.56%     18.76% |      229512      1.57%     20.32% |      228725      1.56%     21.89% |      228640      1.56%     23.45% |      228871      1.56%     25.01% |      228796      1.56%     26.57% |      228780      1.56%     28.14% |      229241      1.57%     29.70% |      229390      1.57%     31.27% |      228153      1.56%     32.83% |      228539      1.56%     34.39% |      228803      1.56%     35.95% |      228939      1.56%     37.52% |      229045      1.56%     39.08% |      228536      1.56%     40.64% |      228733      1.56%     42.20% |      229107      1.56%     43.77% |      228761      1.56%     45.33% |      229492      1.57%     46.90% |      229183      1.57%     48.46% |      229045      1.56%     50.03% |      227964      1.56%     51.59% |      228604      1.56%     53.15% |      227793      1.56%     54.70% |      228540      1.56%     56.26% |      228716      1.56%     57.83% |      228853      1.56%     59.39% |      229139      1.57%     60.95% |      227754      1.56%     62.51% |      228285      1.56%     64.07% |      228553      1.56%     65.63% |      229207      1.57%     67.20% |      229252      1.57%     68.76% |      228103      1.56%     70.32% |      228372      1.56%     71.88% |      229229      1.57%     73.45% |      228109      1.56%     75.00% |      228700      1.56%     76.57% |      230121      1.57%     78.14% |      228135      1.56%     79.70% |      228460      1.56%     81.26% |      228548      1.56%     82.82% |      228928      1.56%     84.38% |      228942      1.56%     85.94% |      229407      1.57%     87.51% |      228902      1.56%     89.08% |      228411      1.56%     90.64% |      228408      1.56%     92.20% |      229188      1.57%     93.76% |      228551      1.56%     95.32% |      228602      1.56%     96.88% |      228135      1.56%     98.44% |      228095      1.56%    100.00% (Unspecified)
system.ruby.L1Cache_Controller.I.Request::total     14640188                       (Unspecified)
system.ruby.L1Cache_Controller.I.Forward |      229346      1.57%      1.57% |      228750      1.56%      3.13% |      228464      1.56%      4.69% |      229236      1.57%      6.25% |      228244      1.56%      7.81% |      228528      1.56%      9.37% |      227695      1.55%     10.93% |      229024      1.56%     12.49% |      229127      1.56%     14.06% |      228920      1.56%     15.62% |      229032      1.56%     17.18% |      229032      1.56%     18.75% |      229664      1.57%     20.32% |      229588      1.57%     21.88% |      229229      1.57%     23.45% |      227738      1.56%     25.01% |      227853      1.56%     26.56% |      229087      1.56%     28.13% |      228971      1.56%     29.69% |      228299      1.56%     31.25% |      229065      1.56%     32.81% |      228746      1.56%     34.37% |      228327      1.56%     35.93% |      228875      1.56%     37.50% |      228591      1.56%     39.06% |      228642      1.56%     40.62% |      228564      1.56%     42.18% |      228868      1.56%     43.74% |      228907      1.56%     45.31% |      229753      1.57%     46.88% |      229212      1.57%     48.44% |      228920      1.56%     50.00% |      228296      1.56%     51.56% |      229424      1.57%     53.13% |      228475      1.56%     54.69% |      228753      1.56%     56.25% |      228229      1.56%     57.81% |      228573      1.56%     59.37% |      228405      1.56%     60.93% |      227976      1.56%     62.49% |      229361      1.57%     64.06% |      229272      1.57%     65.62% |      228130      1.56%     67.18% |      229197      1.57%     68.74% |      228527      1.56%     70.30% |      228807      1.56%     71.87% |      228502      1.56%     73.43% |      228673      1.56%     74.99% |      229277      1.57%     76.55% |      229194      1.57%     78.12% |      228660      1.56%     79.68% |      229215      1.57%     81.25% |      229796      1.57%     82.82% |      228620      1.56%     84.38% |      228045      1.56%     85.93% |      229134      1.56%     87.50% |      229055      1.56%     89.06% |      229072      1.56%     90.63% |      227995      1.56%     92.19% |      228879      1.56%     93.75% |      228550      1.56%     95.31% |      228683      1.56%     96.87% |      229560      1.57%     98.44% |      228692      1.56%    100.00% (Unspecified)
system.ruby.L1Cache_Controller.I.Forward::total     14643324                       (Unspecified)
system.ruby.L1Cache_Controller.I.Response |      228617      1.56%      1.56% |      229050      1.56%      3.12% |      228977      1.56%      4.69% |      228756      1.56%      6.25% |      229476      1.57%      7.82% |      227587      1.55%      9.37% |      229076      1.56%     10.93% |      227587      1.55%     12.49% |      228004      1.56%     14.04% |      228962      1.56%     15.61% |      229010      1.56%     17.17% |      228045      1.56%     18.73% |      228927      1.56%     20.29% |      228526      1.56%     21.85% |      229319      1.57%     23.42% |      228667      1.56%     24.98% |      228421      1.56%     26.54% |      228745      1.56%     28.10% |      229458      1.57%     29.67% |      228504      1.56%     31.23% |      229327      1.57%     32.79% |      228927      1.56%     34.36% |      229179      1.56%     35.92% |      229319      1.57%     37.49% |      228517      1.56%     39.05% |      228586      1.56%     40.61% |      228386      1.56%     42.17% |      228929      1.56%     43.73% |      229217      1.56%     45.29% |      228996      1.56%     46.86% |      229046      1.56%     48.42% |      229178      1.56%     49.99% |      228316      1.56%     51.54% |      228342      1.56%     53.10% |      228907      1.56%     54.67% |      229553      1.57%     56.23% |      228928      1.56%     57.80% |      228793      1.56%     59.36% |      228592      1.56%     60.92% |      229580      1.57%     62.49% |      228579      1.56%     64.05% |      229925      1.57%     65.62% |      228554      1.56%     67.18% |      229656      1.57%     68.75% |      227752      1.55%     70.30% |      228435      1.56%     71.86% |      228616      1.56%     73.42% |      229033      1.56%     74.99% |      228801      1.56%     76.55% |      229144      1.56%     78.11% |      229566      1.57%     79.68% |      228760      1.56%     81.24% |      228795      1.56%     82.80% |      229154      1.56%     84.37% |      228830      1.56%     85.93% |      228894      1.56%     87.49% |      229398      1.57%     89.06% |      228623      1.56%     90.62% |      229276      1.57%     92.18% |      227575      1.55%     93.74% |      228893      1.56%     95.30% |      229371      1.57%     96.87% |      229057      1.56%     98.43% |      229752      1.57%    100.00% (Unspecified)
system.ruby.L1Cache_Controller.I.Response::total     14646771                       (Unspecified)
system.ruby.RequestType.LD.latency_hist_seqr::bucket_size            1                       (Unspecified)
system.ruby.RequestType.LD.latency_hist_seqr::max_bucket            9                       (Unspecified)
system.ruby.RequestType.LD.latency_hist_seqr::samples     14640188                       (Unspecified)
system.ruby.RequestType.LD.latency_hist_seqr::mean            1                       (Unspecified)
system.ruby.RequestType.LD.latency_hist_seqr::gmean            1                       (Unspecified)
system.ruby.RequestType.LD.latency_hist_seqr |           0      0.00%      0.00% |    14640188    100.00%    100.00% |           0      0.00%    100.00% |           0      0.00%    100.00% |           0      0.00%    100.00% |           0      0.00%    100.00% |           0      0.00%    100.00% |           0      0.00%    100.00% |           0      0.00%    100.00% |           0      0.00%    100.00% (Unspecified)
system.ruby.RequestType.LD.latency_hist_seqr::total     14640188                       (Unspecified)
system.ruby.RequestType.LD.hit_latency_hist_seqr::bucket_size            1                       (Unspecified)
system.ruby.RequestType.LD.hit_latency_hist_seqr::max_bucket            9                       (Unspecified)
system.ruby.RequestType.LD.hit_latency_hist_seqr::samples     14640188                       (Unspecified)
system.ruby.RequestType.LD.hit_latency_hist_seqr::mean            1                       (Unspecified)
system.ruby.RequestType.LD.hit_latency_hist_seqr::gmean            1                       (Unspecified)
system.ruby.RequestType.LD.hit_latency_hist_seqr |           0      0.00%      0.00% |    14640188    100.00%    100.00% |           0      0.00%    100.00% |           0      0.00%    100.00% |           0      0.00%    100.00% |           0      0.00%    100.00% |           0      0.00%    100.00% |           0      0.00%    100.00% |           0      0.00%    100.00% |           0      0.00%    100.00% (Unspecified)
system.ruby.RequestType.LD.hit_latency_hist_seqr::total     14640188                       (Unspecified)
system.ruby.RequestType.ST.latency_hist_seqr::bucket_size            1                       (Unspecified)
system.ruby.RequestType.ST.latency_hist_seqr::max_bucket            9                       (Unspecified)
system.ruby.RequestType.ST.latency_hist_seqr::samples     14646771                       (Unspecified)
system.ruby.RequestType.ST.latency_hist_seqr::mean            1                       (Unspecified)
system.ruby.RequestType.ST.latency_hist_seqr::gmean            1                       (Unspecified)
system.ruby.RequestType.ST.latency_hist_seqr |           0      0.00%      0.00% |    14646771    100.00%    100.00% |           0      0.00%    100.00% |           0      0.00%    100.00% |           0      0.00%    100.00% |           0      0.00%    100.00% |           0      0.00%    100.00% |           0      0.00%    100.00% |           0      0.00%    100.00% |           0      0.00%    100.00% (Unspecified)
system.ruby.RequestType.ST.latency_hist_seqr::total     14646771                       (Unspecified)
system.ruby.RequestType.ST.hit_latency_hist_seqr::bucket_size            1                       (Unspecified)
system.ruby.RequestType.ST.hit_latency_hist_seqr::max_bucket            9                       (Unspecified)
system.ruby.RequestType.ST.hit_latency_hist_seqr::samples     14646771                       (Unspecified)
system.ruby.RequestType.ST.hit_latency_hist_seqr::mean            1                       (Unspecified)
system.ruby.RequestType.ST.hit_latency_hist_seqr::gmean            1                       (Unspecified)
system.ruby.RequestType.ST.hit_latency_hist_seqr |           0      0.00%      0.00% |    14646771    100.00%    100.00% |           0      0.00%    100.00% |           0      0.00%    100.00% |           0      0.00%    100.00% |           0      0.00%    100.00% |           0      0.00%    100.00% |           0      0.00%    100.00% |           0      0.00%    100.00% |           0      0.00%    100.00% (Unspecified)
system.ruby.RequestType.ST.hit_latency_hist_seqr::total     14646771                       (Unspecified)
system.ruby.RequestType.IFETCH.latency_hist_seqr::bucket_size            1                       (Unspecified)
system.ruby.RequestType.IFETCH.latency_hist_seqr::max_bucket            9                       (Unspecified)
system.ruby.RequestType.IFETCH.latency_hist_seqr::samples     14643324                       (Unspecified)
system.ruby.RequestType.IFETCH.latency_hist_seqr::mean            1                       (Unspecified)
system.ruby.RequestType.IFETCH.latency_hist_seqr::gmean            1                       (Unspecified)
system.ruby.RequestType.IFETCH.latency_hist_seqr |           0      0.00%      0.00% |    14643324    100.00%    100.00% |           0      0.00%    100.00% |           0      0.00%    100.00% |           0      0.00%    100.00% |           0      0.00%    100.00% |           0      0.00%    100.00% |           0      0.00%    100.00% |           0      0.00%    100.00% |           0      0.00%    100.00% (Unspecified)
system.ruby.RequestType.IFETCH.latency_hist_seqr::total     14643324                       (Unspecified)
system.ruby.RequestType.IFETCH.hit_latency_hist_seqr::bucket_size            1                       (Unspecified)
system.ruby.RequestType.IFETCH.hit_latency_hist_seqr::max_bucket            9                       (Unspecified)
system.ruby.RequestType.IFETCH.hit_latency_hist_seqr::samples     14643324                       (Unspecified)
system.ruby.RequestType.IFETCH.hit_latency_hist_seqr::mean            1                       (Unspecified)
system.ruby.RequestType.IFETCH.hit_latency_hist_seqr::gmean            1                       (Unspecified)
system.ruby.RequestType.IFETCH.hit_latency_hist_seqr |           0      0.00%      0.00% |    14643324    100.00%    100.00% |           0      0.00%    100.00% |           0      0.00%    100.00% |           0      0.00%    100.00% |           0      0.00%    100.00% |           0      0.00%    100.00% |           0      0.00%    100.00% |           0      0.00%    100.00% |           0      0.00%    100.00% (Unspecified)
system.ruby.RequestType.IFETCH.hit_latency_hist_seqr::total     14643324                       (Unspecified)
system.ruby.clk_domain.clock                      250                       # Clock period in ticks (Tick)
system.ruby.dir_cntrl0.forwardToDir.m_msg_count       229356                       # Number of messages passed the buffer (Count)
system.ruby.dir_cntrl0.forwardToDir.m_buf_msgs     0.026701                       # Average number of messages in buffer ((Count/Tick))
system.ruby.dir_cntrl0.power_state.pwrStateResidencyTicks::UNDEFINED   2147483750                       # Cumulative time (in ticks) in various power states (Tick)
system.ruby.dir_cntrl0.requestToDir.m_msg_count       228249                       # Number of messages passed the buffer (Count)
system.ruby.dir_cntrl0.requestToDir.m_buf_msgs     0.026572                       # Average number of messages in buffer ((Count/Tick))
system.ruby.dir_cntrl0.responseToDir.m_msg_count       138182                       # Number of messages passed the buffer (Count)
system.ruby.dir_cntrl0.responseToDir.m_buf_msgs     0.016087                       # Average number of messages in buffer ((Count/Tick))
system.ruby.dir_cntrl1.forwardToDir.m_msg_count       228697                       # Number of messages passed the buffer (Count)
system.ruby.dir_cntrl1.forwardToDir.m_buf_msgs     0.026624                       # Average number of messages in buffer ((Count/Tick))
system.ruby.dir_cntrl1.power_state.pwrStateResidencyTicks::UNDEFINED   2147483750                       # Cumulative time (in ticks) in various power states (Tick)
system.ruby.dir_cntrl1.requestToDir.m_msg_count       228727                       # Number of messages passed the buffer (Count)
system.ruby.dir_cntrl1.requestToDir.m_buf_msgs     0.026627                       # Average number of messages in buffer ((Count/Tick))
system.ruby.dir_cntrl1.responseToDir.m_msg_count       137988                       # Number of messages passed the buffer (Count)
system.ruby.dir_cntrl1.responseToDir.m_buf_msgs     0.016064                       # Average number of messages in buffer ((Count/Tick))
system.ruby.dir_cntrl10.forwardToDir.m_msg_count       229557                       # Number of messages passed the buffer (Count)
system.ruby.dir_cntrl10.forwardToDir.m_buf_msgs     0.026724                       # Average number of messages in buffer ((Count/Tick))
system.ruby.dir_cntrl10.power_state.pwrStateResidencyTicks::UNDEFINED   2147483750                       # Cumulative time (in ticks) in various power states (Tick)
system.ruby.dir_cntrl10.requestToDir.m_msg_count       228762                       # Number of messages passed the buffer (Count)
system.ruby.dir_cntrl10.requestToDir.m_buf_msgs     0.026631                       # Average number of messages in buffer ((Count/Tick))
system.ruby.dir_cntrl10.responseToDir.m_msg_count       137150                       # Number of messages passed the buffer (Count)
system.ruby.dir_cntrl10.responseToDir.m_buf_msgs     0.015966                       # Average number of messages in buffer ((Count/Tick))
system.ruby.dir_cntrl11.forwardToDir.m_msg_count       228934                       # Number of messages passed the buffer (Count)
system.ruby.dir_cntrl11.forwardToDir.m_buf_msgs     0.026651                       # Average number of messages in buffer ((Count/Tick))
system.ruby.dir_cntrl11.power_state.pwrStateResidencyTicks::UNDEFINED   2147483750                       # Cumulative time (in ticks) in various power states (Tick)
system.ruby.dir_cntrl11.requestToDir.m_msg_count       229628                       # Number of messages passed the buffer (Count)
system.ruby.dir_cntrl11.requestToDir.m_buf_msgs     0.026732                       # Average number of messages in buffer ((Count/Tick))
system.ruby.dir_cntrl11.responseToDir.m_msg_count       137854                       # Number of messages passed the buffer (Count)
system.ruby.dir_cntrl11.responseToDir.m_buf_msgs     0.016048                       # Average number of messages in buffer ((Count/Tick))
system.ruby.dir_cntrl12.forwardToDir.m_msg_count       227875                       # Number of messages passed the buffer (Count)
system.ruby.dir_cntrl12.forwardToDir.m_buf_msgs     0.026528                       # Average number of messages in buffer ((Count/Tick))
system.ruby.dir_cntrl12.power_state.pwrStateResidencyTicks::UNDEFINED   2147483750                       # Cumulative time (in ticks) in various power states (Tick)
system.ruby.dir_cntrl12.requestToDir.m_msg_count       228514                       # Number of messages passed the buffer (Count)
system.ruby.dir_cntrl12.requestToDir.m_buf_msgs     0.026603                       # Average number of messages in buffer ((Count/Tick))
system.ruby.dir_cntrl12.responseToDir.m_msg_count       137857                       # Number of messages passed the buffer (Count)
system.ruby.dir_cntrl12.responseToDir.m_buf_msgs     0.016049                       # Average number of messages in buffer ((Count/Tick))
system.ruby.dir_cntrl13.forwardToDir.m_msg_count       228824                       # Number of messages passed the buffer (Count)
system.ruby.dir_cntrl13.forwardToDir.m_buf_msgs     0.026639                       # Average number of messages in buffer ((Count/Tick))
system.ruby.dir_cntrl13.power_state.pwrStateResidencyTicks::UNDEFINED   2147483750                       # Cumulative time (in ticks) in various power states (Tick)
system.ruby.dir_cntrl13.requestToDir.m_msg_count       228366                       # Number of messages passed the buffer (Count)
system.ruby.dir_cntrl13.requestToDir.m_buf_msgs     0.026585                       # Average number of messages in buffer ((Count/Tick))
system.ruby.dir_cntrl13.responseToDir.m_msg_count       138678                       # Number of messages passed the buffer (Count)
system.ruby.dir_cntrl13.responseToDir.m_buf_msgs     0.016144                       # Average number of messages in buffer ((Count/Tick))
system.ruby.dir_cntrl14.forwardToDir.m_msg_count       228738                       # Number of messages passed the buffer (Count)
system.ruby.dir_cntrl14.forwardToDir.m_buf_msgs     0.026629                       # Average number of messages in buffer ((Count/Tick))
system.ruby.dir_cntrl14.power_state.pwrStateResidencyTicks::UNDEFINED   2147483750                       # Cumulative time (in ticks) in various power states (Tick)
system.ruby.dir_cntrl14.requestToDir.m_msg_count       227554                       # Number of messages passed the buffer (Count)
system.ruby.dir_cntrl14.requestToDir.m_buf_msgs     0.026491                       # Average number of messages in buffer ((Count/Tick))
system.ruby.dir_cntrl14.responseToDir.m_msg_count       137434                       # Number of messages passed the buffer (Count)
system.ruby.dir_cntrl14.responseToDir.m_buf_msgs     0.015999                       # Average number of messages in buffer ((Count/Tick))
system.ruby.dir_cntrl15.forwardToDir.m_msg_count       229033                       # Number of messages passed the buffer (Count)
system.ruby.dir_cntrl15.forwardToDir.m_buf_msgs     0.026663                       # Average number of messages in buffer ((Count/Tick))
system.ruby.dir_cntrl15.power_state.pwrStateResidencyTicks::UNDEFINED   2147483750                       # Cumulative time (in ticks) in various power states (Tick)
system.ruby.dir_cntrl15.requestToDir.m_msg_count       229318                       # Number of messages passed the buffer (Count)
system.ruby.dir_cntrl15.requestToDir.m_buf_msgs     0.026696                       # Average number of messages in buffer ((Count/Tick))
system.ruby.dir_cntrl15.responseToDir.m_msg_count       138362                       # Number of messages passed the buffer (Count)
system.ruby.dir_cntrl15.responseToDir.m_buf_msgs     0.016107                       # Average number of messages in buffer ((Count/Tick))
system.ruby.dir_cntrl16.forwardToDir.m_msg_count       229347                       # Number of messages passed the buffer (Count)
system.ruby.dir_cntrl16.forwardToDir.m_buf_msgs     0.026700                       # Average number of messages in buffer ((Count/Tick))
system.ruby.dir_cntrl16.power_state.pwrStateResidencyTicks::UNDEFINED   2147483750                       # Cumulative time (in ticks) in various power states (Tick)
system.ruby.dir_cntrl16.requestToDir.m_msg_count       228336                       # Number of messages passed the buffer (Count)
system.ruby.dir_cntrl16.requestToDir.m_buf_msgs     0.026582                       # Average number of messages in buffer ((Count/Tick))
system.ruby.dir_cntrl16.responseToDir.m_msg_count       138214                       # Number of messages passed the buffer (Count)
system.ruby.dir_cntrl16.responseToDir.m_buf_msgs     0.016090                       # Average number of messages in buffer ((Count/Tick))
system.ruby.dir_cntrl17.forwardToDir.m_msg_count       229385                       # Number of messages passed the buffer (Count)
system.ruby.dir_cntrl17.forwardToDir.m_buf_msgs     0.026704                       # Average number of messages in buffer ((Count/Tick))
system.ruby.dir_cntrl17.power_state.pwrStateResidencyTicks::UNDEFINED   2147483750                       # Cumulative time (in ticks) in various power states (Tick)
system.ruby.dir_cntrl17.requestToDir.m_msg_count       229424                       # Number of messages passed the buffer (Count)
system.ruby.dir_cntrl17.requestToDir.m_buf_msgs     0.026708                       # Average number of messages in buffer ((Count/Tick))
system.ruby.dir_cntrl17.responseToDir.m_msg_count       137962                       # Number of messages passed the buffer (Count)
system.ruby.dir_cntrl17.responseToDir.m_buf_msgs     0.016061                       # Average number of messages in buffer ((Count/Tick))
system.ruby.dir_cntrl18.forwardToDir.m_msg_count       228099                       # Number of messages passed the buffer (Count)
system.ruby.dir_cntrl18.forwardToDir.m_buf_msgs     0.026554                       # Average number of messages in buffer ((Count/Tick))
system.ruby.dir_cntrl18.power_state.pwrStateResidencyTicks::UNDEFINED   2147483750                       # Cumulative time (in ticks) in various power states (Tick)
system.ruby.dir_cntrl18.requestToDir.m_msg_count       229139                       # Number of messages passed the buffer (Count)
system.ruby.dir_cntrl18.requestToDir.m_buf_msgs     0.026675                       # Average number of messages in buffer ((Count/Tick))
system.ruby.dir_cntrl18.responseToDir.m_msg_count       138655                       # Number of messages passed the buffer (Count)
system.ruby.dir_cntrl18.responseToDir.m_buf_msgs     0.016142                       # Average number of messages in buffer ((Count/Tick))
system.ruby.dir_cntrl19.forwardToDir.m_msg_count       229041                       # Number of messages passed the buffer (Count)
system.ruby.dir_cntrl19.forwardToDir.m_buf_msgs     0.026664                       # Average number of messages in buffer ((Count/Tick))
system.ruby.dir_cntrl19.power_state.pwrStateResidencyTicks::UNDEFINED   2147483750                       # Cumulative time (in ticks) in various power states (Tick)
system.ruby.dir_cntrl19.requestToDir.m_msg_count       228616                       # Number of messages passed the buffer (Count)
system.ruby.dir_cntrl19.requestToDir.m_buf_msgs     0.026614                       # Average number of messages in buffer ((Count/Tick))
system.ruby.dir_cntrl19.responseToDir.m_msg_count       137045                       # Number of messages passed the buffer (Count)
system.ruby.dir_cntrl19.responseToDir.m_buf_msgs     0.015954                       # Average number of messages in buffer ((Count/Tick))
system.ruby.dir_cntrl2.forwardToDir.m_msg_count       228734                       # Number of messages passed the buffer (Count)
system.ruby.dir_cntrl2.forwardToDir.m_buf_msgs     0.026628                       # Average number of messages in buffer ((Count/Tick))
system.ruby.dir_cntrl2.power_state.pwrStateResidencyTicks::UNDEFINED   2147483750                       # Cumulative time (in ticks) in various power states (Tick)
system.ruby.dir_cntrl2.requestToDir.m_msg_count       229048                       # Number of messages passed the buffer (Count)
system.ruby.dir_cntrl2.requestToDir.m_buf_msgs     0.026665                       # Average number of messages in buffer ((Count/Tick))
system.ruby.dir_cntrl2.responseToDir.m_msg_count       137806                       # Number of messages passed the buffer (Count)
system.ruby.dir_cntrl2.responseToDir.m_buf_msgs     0.016043                       # Average number of messages in buffer ((Count/Tick))
system.ruby.dir_cntrl20.forwardToDir.m_msg_count       228632                       # Number of messages passed the buffer (Count)
system.ruby.dir_cntrl20.forwardToDir.m_buf_msgs     0.026616                       # Average number of messages in buffer ((Count/Tick))
system.ruby.dir_cntrl20.power_state.pwrStateResidencyTicks::UNDEFINED   2147483750                       # Cumulative time (in ticks) in various power states (Tick)
system.ruby.dir_cntrl20.requestToDir.m_msg_count       228595                       # Number of messages passed the buffer (Count)
system.ruby.dir_cntrl20.requestToDir.m_buf_msgs     0.026612                       # Average number of messages in buffer ((Count/Tick))
system.ruby.dir_cntrl20.responseToDir.m_msg_count       137830                       # Number of messages passed the buffer (Count)
system.ruby.dir_cntrl20.responseToDir.m_buf_msgs     0.016046                       # Average number of messages in buffer ((Count/Tick))
system.ruby.dir_cntrl21.forwardToDir.m_msg_count       228966                       # Number of messages passed the buffer (Count)
system.ruby.dir_cntrl21.forwardToDir.m_buf_msgs     0.026655                       # Average number of messages in buffer ((Count/Tick))
system.ruby.dir_cntrl21.power_state.pwrStateResidencyTicks::UNDEFINED   2147483750                       # Cumulative time (in ticks) in various power states (Tick)
system.ruby.dir_cntrl21.requestToDir.m_msg_count       228734                       # Number of messages passed the buffer (Count)
system.ruby.dir_cntrl21.requestToDir.m_buf_msgs     0.026628                       # Average number of messages in buffer ((Count/Tick))
system.ruby.dir_cntrl21.responseToDir.m_msg_count       137846                       # Number of messages passed the buffer (Count)
system.ruby.dir_cntrl21.responseToDir.m_buf_msgs     0.016047                       # Average number of messages in buffer ((Count/Tick))
system.ruby.dir_cntrl22.forwardToDir.m_msg_count       228219                       # Number of messages passed the buffer (Count)
system.ruby.dir_cntrl22.forwardToDir.m_buf_msgs     0.026568                       # Average number of messages in buffer ((Count/Tick))
system.ruby.dir_cntrl22.power_state.pwrStateResidencyTicks::UNDEFINED   2147483750                       # Cumulative time (in ticks) in various power states (Tick)
system.ruby.dir_cntrl22.requestToDir.m_msg_count       228027                       # Number of messages passed the buffer (Count)
system.ruby.dir_cntrl22.requestToDir.m_buf_msgs     0.026546                       # Average number of messages in buffer ((Count/Tick))
system.ruby.dir_cntrl22.responseToDir.m_msg_count       137681                       # Number of messages passed the buffer (Count)
system.ruby.dir_cntrl22.responseToDir.m_buf_msgs     0.016028                       # Average number of messages in buffer ((Count/Tick))
system.ruby.dir_cntrl23.forwardToDir.m_msg_count       229267                       # Number of messages passed the buffer (Count)
system.ruby.dir_cntrl23.forwardToDir.m_buf_msgs     0.026690                       # Average number of messages in buffer ((Count/Tick))
system.ruby.dir_cntrl23.power_state.pwrStateResidencyTicks::UNDEFINED   2147483750                       # Cumulative time (in ticks) in various power states (Tick)
system.ruby.dir_cntrl23.requestToDir.m_msg_count       228907                       # Number of messages passed the buffer (Count)
system.ruby.dir_cntrl23.requestToDir.m_buf_msgs     0.026648                       # Average number of messages in buffer ((Count/Tick))
system.ruby.dir_cntrl23.responseToDir.m_msg_count       137685                       # Number of messages passed the buffer (Count)
system.ruby.dir_cntrl23.responseToDir.m_buf_msgs     0.016029                       # Average number of messages in buffer ((Count/Tick))
system.ruby.dir_cntrl24.forwardToDir.m_msg_count       228831                       # Number of messages passed the buffer (Count)
system.ruby.dir_cntrl24.forwardToDir.m_buf_msgs     0.026639                       # Average number of messages in buffer ((Count/Tick))
system.ruby.dir_cntrl24.power_state.pwrStateResidencyTicks::UNDEFINED   2147483750                       # Cumulative time (in ticks) in various power states (Tick)
system.ruby.dir_cntrl24.requestToDir.m_msg_count       228227                       # Number of messages passed the buffer (Count)
system.ruby.dir_cntrl24.requestToDir.m_buf_msgs     0.026569                       # Average number of messages in buffer ((Count/Tick))
system.ruby.dir_cntrl24.responseToDir.m_msg_count       137903                       # Number of messages passed the buffer (Count)
system.ruby.dir_cntrl24.responseToDir.m_buf_msgs     0.016054                       # Average number of messages in buffer ((Count/Tick))
system.ruby.dir_cntrl25.forwardToDir.m_msg_count       228747                       # Number of messages passed the buffer (Count)
system.ruby.dir_cntrl25.forwardToDir.m_buf_msgs     0.026630                       # Average number of messages in buffer ((Count/Tick))
system.ruby.dir_cntrl25.power_state.pwrStateResidencyTicks::UNDEFINED   2147483750                       # Cumulative time (in ticks) in various power states (Tick)
system.ruby.dir_cntrl25.requestToDir.m_msg_count       228456                       # Number of messages passed the buffer (Count)
system.ruby.dir_cntrl25.requestToDir.m_buf_msgs     0.026596                       # Average number of messages in buffer ((Count/Tick))
system.ruby.dir_cntrl25.responseToDir.m_msg_count       138178                       # Number of messages passed the buffer (Count)
system.ruby.dir_cntrl25.responseToDir.m_buf_msgs     0.016086                       # Average number of messages in buffer ((Count/Tick))
system.ruby.dir_cntrl26.forwardToDir.m_msg_count       229405                       # Number of messages passed the buffer (Count)
system.ruby.dir_cntrl26.forwardToDir.m_buf_msgs     0.026706                       # Average number of messages in buffer ((Count/Tick))
system.ruby.dir_cntrl26.power_state.pwrStateResidencyTicks::UNDEFINED   2147483750                       # Cumulative time (in ticks) in various power states (Tick)
system.ruby.dir_cntrl26.requestToDir.m_msg_count       229523                       # Number of messages passed the buffer (Count)
system.ruby.dir_cntrl26.requestToDir.m_buf_msgs     0.026720                       # Average number of messages in buffer ((Count/Tick))
system.ruby.dir_cntrl26.responseToDir.m_msg_count       137790                       # Number of messages passed the buffer (Count)
system.ruby.dir_cntrl26.responseToDir.m_buf_msgs     0.016041                       # Average number of messages in buffer ((Count/Tick))
system.ruby.dir_cntrl27.forwardToDir.m_msg_count       228323                       # Number of messages passed the buffer (Count)
system.ruby.dir_cntrl27.forwardToDir.m_buf_msgs     0.026580                       # Average number of messages in buffer ((Count/Tick))
system.ruby.dir_cntrl27.power_state.pwrStateResidencyTicks::UNDEFINED   2147483750                       # Cumulative time (in ticks) in various power states (Tick)
[...]
system.ruby.network.sankey.vcvn35.vcvn5             0                       (Unspecified)
system.ruby.network.sankey.vcvn35.vcvn6             0                       (Unspecified)
system.ruby.network.sankey.vcvn35.vcvn7             0                       (Unspecified)
system.ruby.network.sankey.vcvn35.vcvn8             0                       (Unspecified)
system.ruby.network.sankey.vcvn35.vcvn9             0                       (Unspecified)
system.ruby.network.sankey.vcvn4.vcvn0        1107729                       (Unspecified)
system.ruby.network.sankey.vcvn4.vcvn1         166830                       (Unspecified)
system.ruby.network.sankey.vcvn4.vcvn10             0                       (Unspecified)
system.ruby.network.sankey.vcvn4.vcvn11             5                       (Unspecified)
system.ruby.network.sankey.vcvn4.vcvn12             0                       (Unspecified)
system.ruby.network.sankey.vcvn4.vcvn13             0                       (Unspecified)
system.ruby.network.sankey.vcvn4.vcvn14             0                       (Unspecified)
system.ruby.network.sankey.vcvn4.vcvn15             0                       (Unspecified)
system.ruby.network.sankey.vcvn4.vcvn16             0                       (Unspecified)
system.ruby.network.sankey.vcvn4.vcvn17             0                       (Unspecified)
system.ruby.network.sankey.vcvn4.vcvn18             0                       (Unspecified)
system.ruby.network.sankey.vcvn4.vcvn19             0                       (Unspecified)
system.ruby.network.sankey.vcvn4.vcvn2          13855                       (Unspecified)
system.ruby.network.sankey.vcvn4.vcvn20             0                       (Unspecified)
system.ruby.network.sankey.vcvn4.vcvn21             0                       (Unspecified)
system.ruby.network.sankey.vcvn4.vcvn22             0                       (Unspecified)
system.ruby.network.sankey.vcvn4.vcvn23             0                       (Unspecified)
system.ruby.network.sankey.vcvn4.vcvn24             0                       (Unspecified)
system.ruby.network.sankey.vcvn4.vcvn25             0                       (Unspecified)
system.ruby.network.sankey.vcvn4.vcvn26             0                       (Unspecified)
system.ruby.network.sankey.vcvn4.vcvn27             0                       (Unspecified)
system.ruby.network.sankey.vcvn4.vcvn28             0                       (Unspecified)
system.ruby.network.sankey.vcvn4.vcvn29             0                       (Unspecified)
system.ruby.network.sankey.vcvn4.vcvn3            721                       (Unspecified)
system.ruby.network.sankey.vcvn4.vcvn30             0                       (Unspecified)
system.ruby.network.sankey.vcvn4.vcvn31             0                       (Unspecified)
system.ruby.network.sankey.vcvn4.vcvn32             0                       (Unspecified)
system.ruby.network.sankey.vcvn4.vcvn33             0                       (Unspecified)
system.ruby.network.sankey.vcvn4.vcvn34             0                       (Unspecified)
system.ruby.network.sankey.vcvn4.vcvn35             0                       (Unspecified)
system.ruby.network.sankey.vcvn4.vcvn4             37                       (Unspecified)
system.ruby.network.sankey.vcvn4.vcvn5              0                       (Unspecified)
system.ruby.network.sankey.vcvn4.vcvn6              0                       (Unspecified)
system.ruby.network.sankey.vcvn4.vcvn7              0                       (Unspecified)
system.ruby.network.sankey.vcvn4.vcvn8              0                       (Unspecified)
system.ruby.network.sankey.vcvn4.vcvn9              0                       (Unspecified)
system.ruby.network.sankey.vcvn5.vcvn0        1108247                       (Unspecified)
system.ruby.network.sankey.vcvn5.vcvn1         166445                       (Unspecified)
system.ruby.network.sankey.vcvn5.vcvn10             0                       (Unspecified)
system.ruby.network.sankey.vcvn5.vcvn11            13                       (Unspecified)
system.ruby.network.sankey.vcvn5.vcvn12             0                       (Unspecified)
system.ruby.network.sankey.vcvn5.vcvn13             0                       (Unspecified)
system.ruby.network.sankey.vcvn5.vcvn14             0                       (Unspecified)
system.ruby.network.sankey.vcvn5.vcvn15             0                       (Unspecified)
system.ruby.network.sankey.vcvn5.vcvn16             0                       (Unspecified)
system.ruby.network.sankey.vcvn5.vcvn17             0                       (Unspecified)
system.ruby.network.sankey.vcvn5.vcvn18             0                       (Unspecified)
system.ruby.network.sankey.vcvn5.vcvn19             0                       (Unspecified)
system.ruby.network.sankey.vcvn5.vcvn2          13707                       (Unspecified)
system.ruby.network.sankey.vcvn5.vcvn20             0                       (Unspecified)
system.ruby.network.sankey.vcvn5.vcvn21             0                       (Unspecified)
system.ruby.network.sankey.vcvn5.vcvn22             0                       (Unspecified)
system.ruby.network.sankey.vcvn5.vcvn23             0                       (Unspecified)
system.ruby.network.sankey.vcvn5.vcvn24             0                       (Unspecified)
system.ruby.network.sankey.vcvn5.vcvn25             0                       (Unspecified)
system.ruby.network.sankey.vcvn5.vcvn26             0                       (Unspecified)
system.ruby.network.sankey.vcvn5.vcvn27             0                       (Unspecified)
system.ruby.network.sankey.vcvn5.vcvn28             0                       (Unspecified)
system.ruby.network.sankey.vcvn5.vcvn29             0                       (Unspecified)
system.ruby.network.sankey.vcvn5.vcvn3            733                       (Unspecified)
system.ruby.network.sankey.vcvn5.vcvn30             0                       (Unspecified)
system.ruby.network.sankey.vcvn5.vcvn31             0                       (Unspecified)
system.ruby.network.sankey.vcvn5.vcvn32             0                       (Unspecified)
system.ruby.network.sankey.vcvn5.vcvn33             0                       (Unspecified)
system.ruby.network.sankey.vcvn5.vcvn34             0                       (Unspecified)
system.ruby.network.sankey.vcvn5.vcvn35             0                       (Unspecified)
system.ruby.network.sankey.vcvn5.vcvn4             25                       (Unspecified)
system.ruby.network.sankey.vcvn5.vcvn5              0                       (Unspecified)
system.ruby.network.sankey.vcvn5.vcvn6              0                       (Unspecified)
system.ruby.network.sankey.vcvn5.vcvn7              0                       (Unspecified)
system.ruby.network.sankey.vcvn5.vcvn8              0                       (Unspecified)
system.ruby.network.sankey.vcvn5.vcvn9              0                       (Unspecified)
system.ruby.network.sankey.vcvn6.vcvn0        1107788                       (Unspecified)
system.ruby.network.sankey.vcvn6.vcvn1         166819                       (Unspecified)
system.ruby.network.sankey.vcvn6.vcvn10             0                       (Unspecified)
system.ruby.network.sankey.vcvn6.vcvn11             7                       (Unspecified)
system.ruby.network.sankey.vcvn6.vcvn12             0                       (Unspecified)
system.ruby.network.sankey.vcvn6.vcvn13             0                       (Unspecified)
system.ruby.network.sankey.vcvn6.vcvn14             0                       (Unspecified)
system.ruby.network.sankey.vcvn6.vcvn15             0                       (Unspecified)
system.ruby.network.sankey.vcvn6.vcvn16             0                       (Unspecified)
system.ruby.network.sankey.vcvn6.vcvn17             0                       (Unspecified)
system.ruby.network.sankey.vcvn6.vcvn18             0                       (Unspecified)
system.ruby.network.sankey.vcvn6.vcvn19             0                       (Unspecified)
system.ruby.network.sankey.vcvn6.vcvn2          13808                       (Unspecified)
system.ruby.network.sankey.vcvn6.vcvn20             0                       (Unspecified)
system.ruby.network.sankey.vcvn6.vcvn21             0                       (Unspecified)
system.ruby.network.sankey.vcvn6.vcvn22             0                       (Unspecified)
system.ruby.network.sankey.vcvn6.vcvn23             0                       (Unspecified)
system.ruby.network.sankey.vcvn6.vcvn24             0                       (Unspecified)
system.ruby.network.sankey.vcvn6.vcvn25             0                       (Unspecified)
system.ruby.network.sankey.vcvn6.vcvn26             0                       (Unspecified)
system.ruby.network.sankey.vcvn6.vcvn27             0                       (Unspecified)
system.ruby.network.sankey.vcvn6.vcvn28             0                       (Unspecified)
system.ruby.network.sankey.vcvn6.vcvn29             0                       (Unspecified)
system.ruby.network.sankey.vcvn6.vcvn3            715                       (Unspecified)
system.ruby.network.sankey.vcvn6.vcvn30             0                       (Unspecified)
system.ruby.network.sankey.vcvn6.vcvn31             0                       (Unspecified)
system.ruby.network.sankey.vcvn6.vcvn32             0                       (Unspecified)
system.ruby.network.sankey.vcvn6.vcvn33             0                       (Unspecified)
system.ruby.network.sankey.vcvn6.vcvn34             0                       (Unspecified)
system.ruby.network.sankey.vcvn6.vcvn35             0                       (Unspecified)
system.ruby.network.sankey.vcvn6.vcvn4             24                       (Unspecified)
system.ruby.network.sankey.vcvn6.vcvn5              0                       (Unspecified)
system.ruby.network.sankey.vcvn6.vcvn6              0                       (Unspecified)
system.ruby.network.sankey.vcvn6.vcvn7              0                       (Unspecified)
system.ruby.network.sankey.vcvn6.vcvn8              0                       (Unspecified)
system.ruby.network.sankey.vcvn6.vcvn9              0                       (Unspecified)
system.ruby.network.sankey.vcvn7.vcvn0        1107808                       (Unspecified)
system.ruby.network.sankey.vcvn7.vcvn1         166918                       (Unspecified)
system.ruby.network.sankey.vcvn7.vcvn10             0                       (Unspecified)
system.ruby.network.sankey.vcvn7.vcvn11            11                       (Unspecified)
system.ruby.network.sankey.vcvn7.vcvn12             0                       (Unspecified)
system.ruby.network.sankey.vcvn7.vcvn13             0                       (Unspecified)
system.ruby.network.sankey.vcvn7.vcvn14             0                       (Unspecified)
system.ruby.network.sankey.vcvn7.vcvn15             0                       (Unspecified)
system.ruby.network.sankey.vcvn7.vcvn16             0                       (Unspecified)
system.ruby.network.sankey.vcvn7.vcvn17             0                       (Unspecified)
system.ruby.network.sankey.vcvn7.vcvn18             0                       (Unspecified)
system.ruby.network.sankey.vcvn7.vcvn19             0                       (Unspecified)
system.ruby.network.sankey.vcvn7.vcvn2          13699                       (Unspecified)
system.ruby.network.sankey.vcvn7.vcvn20             0                       (Unspecified)
system.ruby.network.sankey.vcvn7.vcvn21             0                       (Unspecified)
system.ruby.network.sankey.vcvn7.vcvn22             0                       (Unspecified)
system.ruby.network.sankey.vcvn7.vcvn23             0                       (Unspecified)
system.ruby.network.sankey.vcvn7.vcvn24             0                       (Unspecified)
system.ruby.network.sankey.vcvn7.vcvn25             0                       (Unspecified)
system.ruby.network.sankey.vcvn7.vcvn26             0                       (Unspecified)
system.ruby.network.sankey.vcvn7.vcvn27             0                       (Unspecified)
system.ruby.network.sankey.vcvn7.vcvn28             0                       (Unspecified)
system.ruby.network.sankey.vcvn7.vcvn29             0                       (Unspecified)
system.ruby.network.sankey.vcvn7.vcvn3            693                       (Unspecified)
system.ruby.network.sankey.vcvn7.vcvn30             0                       (Unspecified)
system.ruby.network.sankey.vcvn7.vcvn31             0                       (Unspecified)
system.ruby.network.sankey.vcvn7.vcvn32             0                       (Unspecified)
system.ruby.network.sankey.vcvn7.vcvn33             0                       (Unspecified)
system.ruby.network.sankey.vcvn7.vcvn34             0                       (Unspecified)
system.ruby.network.sankey.vcvn7.vcvn35             0                       (Unspecified)
system.ruby.network.sankey.vcvn7.vcvn4             27                       (Unspecified)
system.ruby.network.sankey.vcvn7.vcvn5              1                       (Unspecified)
system.ruby.network.sankey.vcvn7.vcvn6              0                       (Unspecified)
system.ruby.network.sankey.vcvn7.vcvn7              0                       (Unspecified)
system.ruby.network.sankey.vcvn7.vcvn8              0                       (Unspecified)
system.ruby.network.sankey.vcvn7.vcvn9              0                       (Unspecified)
system.ruby.network.sankey.vcvn8.vcvn0        1108097                       (Unspecified)
system.ruby.network.sankey.vcvn8.vcvn1         166546                       (Unspecified)
system.ruby.network.sankey.vcvn8.vcvn10             0                       (Unspecified)
system.ruby.network.sankey.vcvn8.vcvn11             7                       (Unspecified)
system.ruby.network.sankey.vcvn8.vcvn12             0                       (Unspecified)
system.ruby.network.sankey.vcvn8.vcvn13             0                       (Unspecified)
system.ruby.network.sankey.vcvn8.vcvn14             0                       (Unspecified)
system.ruby.network.sankey.vcvn8.vcvn15             0                       (Unspecified)
system.ruby.network.sankey.vcvn8.vcvn16             0                       (Unspecified)
system.ruby.network.sankey.vcvn8.vcvn17             0                       (Unspecified)
system.ruby.network.sankey.vcvn8.vcvn18             0                       (Unspecified)
system.ruby.network.sankey.vcvn8.vcvn19             0                       (Unspecified)
system.ruby.network.sankey.vcvn8.vcvn2          13774                       (Unspecified)
system.ruby.network.sankey.vcvn8.vcvn20             0                       (Unspecified)
system.ruby.network.sankey.vcvn8.vcvn21             0                       (Unspecified)
system.ruby.network.sankey.vcvn8.vcvn22             0                       (Unspecified)
system.ruby.network.sankey.vcvn8.vcvn23             0                       (Unspecified)
system.ruby.network.sankey.vcvn8.vcvn24             0                       (Unspecified)
system.ruby.network.sankey.vcvn8.vcvn25             0                       (Unspecified)
system.ruby.network.sankey.vcvn8.vcvn26             0                       (Unspecified)
system.ruby.network.sankey.vcvn8.vcvn27             0                       (Unspecified)
system.ruby.network.sankey.vcvn8.vcvn28             0                       (Unspecified)
system.ruby.network.sankey.vcvn8.vcvn29             0                       (Unspecified)
system.ruby.network.sankey.vcvn8.vcvn3            696                       (Unspecified)
system.ruby.network.sankey.vcvn8.vcvn30             0                       (Unspecified)
system.ruby.network.sankey.vcvn8.vcvn31             0                       (Unspecified)
system.ruby.network.sankey.vcvn8.vcvn32             0                       (Unspecified)
system.ruby.network.sankey.vcvn8.vcvn33             0                       (Unspecified)
system.ruby.network.sankey.vcvn8.vcvn34             0                       (Unspecified)
system.ruby.network.sankey.vcvn8.vcvn35             0                       (Unspecified)
system.ruby.network.sankey.vcvn8.vcvn4             29                       (Unspecified)
system.ruby.network.sankey.vcvn8.vcvn5              1                       (Unspecified)
system.ruby.network.sankey.vcvn8.vcvn6              0                       (Unspecified)
system.ruby.network.sankey.vcvn8.vcvn7              0                       (Unspecified)
system.ruby.network.sankey.vcvn8.vcvn8              0                       (Unspecified)
system.ruby.network.sankey.vcvn8.vcvn9              0                       (Unspecified)
system.ruby.network.sankey.vcvn9.vcvn0        1107152                       (Unspecified)
system.ruby.network.sankey.vcvn9.vcvn1         167494                       (Unspecified)
system.ruby.network.sankey.vcvn9.vcvn10             0                       (Unspecified)
system.ruby.network.sankey.vcvn9.vcvn11             7                       (Unspecified)
system.ruby.network.sankey.vcvn9.vcvn12             0                       (Unspecified)
system.ruby.network.sankey.vcvn9.vcvn13             0                       (Unspecified)
system.ruby.network.sankey.vcvn9.vcvn14             0                       (Unspecified)
system.ruby.network.sankey.vcvn9.vcvn15             0                       (Unspecified)
system.ruby.network.sankey.vcvn9.vcvn16             0                       (Unspecified)
system.ruby.network.sankey.vcvn9.vcvn17             0                       (Unspecified)
system.ruby.network.sankey.vcvn9.vcvn18             0                       (Unspecified)
system.ruby.network.sankey.vcvn9.vcvn19             0                       (Unspecified)
system.ruby.network.sankey.vcvn9.vcvn2          13772                       (Unspecified)
system.ruby.network.sankey.vcvn9.vcvn20             0                       (Unspecified)
system.ruby.network.sankey.vcvn9.vcvn21             0                       (Unspecified)
system.ruby.network.sankey.vcvn9.vcvn22             0                       (Unspecified)
system.ruby.network.sankey.vcvn9.vcvn23             0                       (Unspecified)
system.ruby.network.sankey.vcvn9.vcvn24             0                       (Unspecified)
system.ruby.network.sankey.vcvn9.vcvn25             0                       (Unspecified)
system.ruby.network.sankey.vcvn9.vcvn26             0                       (Unspecified)
system.ruby.network.sankey.vcvn9.vcvn27             0                       (Unspecified)
system.ruby.network.sankey.vcvn9.vcvn28             0                       (Unspecified)
system.ruby.network.sankey.vcvn9.vcvn29             0                       (Unspecified)
system.ruby.network.sankey.vcvn9.vcvn3            698                       (Unspecified)
system.ruby.network.sankey.vcvn9.vcvn30             0                       (Unspecified)
system.ruby.network.sankey.vcvn9.vcvn31             0                       (Unspecified)
system.ruby.network.sankey.vcvn9.vcvn32             0                       (Unspecified)
system.ruby.network.sankey.vcvn9.vcvn33             0                       (Unspecified)
system.ruby.network.sankey.vcvn9.vcvn34             0                       (Unspecified)
system.ruby.network.sankey.vcvn9.vcvn35             0                       (Unspecified)
system.ruby.network.sankey.vcvn9.vcvn4             26                       (Unspecified)
system.ruby.network.sankey.vcvn9.vcvn5              0                       (Unspecified)
system.ruby.network.sankey.vcvn9.vcvn6              0                       (Unspecified)
system.ruby.network.sankey.vcvn9.vcvn7              0                       (Unspecified)
system.ruby.network.sankey.vcvn9.vcvn8              0                       (Unspecified)
system.ruby.network.sankey.vcvn9.vcvn9              0                       (Unspecified)

---------- End Simulation Statistics   ----------
