gem5 Simulator System.  https://www.gem5.org
gem5 is copyrighted software; use the --copyright option for details.

gem5 version 22.0.0.2
gem5 compiled Jun 17 2023 14:31:12
gem5 started Nov 18 2023 15:50:10
gem5 executing on mnemosyne14.ecn.purdue.edu, pid 23801
command line: ./build/Garnet_standalone/gem5.fast -d ./synth_outputs/simple/2b/mixed/mclb_hops_4_6_40cpus_4xdirs_4.0GHz/coh/ns_s_scop/0_18/ configs/auto_top/auto_top_synth.py --topology EscapeVirtualNetworks --noi_routers 20 --sim-cycles 2147483647 --injectionrate 0.18 --noc_clk 4.0GHz --sys-clock 4.0GHz --ruby-clock 4.0GHz --noi_clk 3.6GHz --router_map_file configs/topologies/paper_solutions/ns_s_scop.map --flat_vn_map_file configs/topologies/vn_maps_mclb/ns_s_scop_mclb_hops_4vns.vn --flat_nr_map_file configs/topologies/nr_list_mclb/ns_s_scop_mclb.nrl --ruby --mem_or_coh coh --mem-size 320000000 --num-dirs 160 --num-cpus 40 --network garnet --mem-type SimpleMemory --routing-algorithm 2 --use_escape_vns --synth_traffic --vcs-per-vnet 6 --evn_deadlock_partition 2 --evn_n_deadlock_free 1 --evn_min_n_deadlock_free 4

info: Standard input is not a terminal, disabling listeners.
ingesting configs/topologies/vn_maps_mclb/ns_s_scop_mclb_hops_4vns.vn
cpus(40)=[<m5.objects.GarnetSyntheticTraffic.GarnetSyntheticTraffic object at 0x7f1ff7d290f0>, <m5.objects.GarnetSyntheticTraffic.GarnetSyntheticTraffic object at 0x7f1ff7d29e80>, <m5.objects.GarnetSyntheticTraffic.GarnetSyntheticTraffic object at 0x7f1ff78a5198>, <m5.objects.GarnetSyntheticTraffic.GarnetSyntheticTraffic object at 0x7f1ff78a5470>, <m5.objects.GarnetSyntheticTraffic.GarnetSyntheticTraffic object at 0x7f1ff78a5748>, <m5.objects.GarnetSyntheticTraffic.GarnetSyntheticTraffic object at 0x7f1ff78a5a20>, <m5.objects.GarnetSyntheticTraffic.GarnetSyntheticTraffic object at 0x7f1ff78a5cf8>, <m5.objects.GarnetSyntheticTraffic.GarnetSyntheticTraffic object at 0x7f1ff78a5fd0>, <m5.objects.GarnetSyntheticTraffic.GarnetSyntheticTraffic object at 0x7f1ff78ae2e8>, <m5.objects.GarnetSyntheticTraffic.GarnetSyntheticTraffic object at 0x7f1ff78ae5c0>, <m5.objects.GarnetSyntheticTraffic.GarnetSyntheticTraffic object at 0x7f1ff78ae898>, <m5.objects.GarnetSyntheticTraffic.GarnetSyntheticTraffic object at 0x7f1ff78aeb70>, <m5.objects.GarnetSyntheticTraffic.GarnetSyntheticTraffic object at 0x7f1ff7d29908>, <m5.objects.GarnetSyntheticTraffic.GarnetSyntheticTraffic object at 0x7f1ff7d18e48>, <m5.objects.GarnetSyntheticTraffic.GarnetSyntheticTraffic object at 0x7f1ff7d22630>, <m5.objects.GarnetSyntheticTraffic.GarnetSyntheticTraffic object at 0x7f1ff7d22cc0>, <m5.objects.GarnetSyntheticTraffic.GarnetSyntheticTraffic object at 0x7f1ff78aedd8>, <m5.objects.GarnetSyntheticTraffic.GarnetSyntheticTraffic object at 0x7f1ff78ba0f0>, <m5.objects.GarnetSyntheticTraffic.GarnetSyntheticTraffic object at 0x7f1ff78ba3c8>, <m5.objects.GarnetSyntheticTraffic.GarnetSyntheticTraffic object at 0x7f1ff78ba6a0>, <m5.objects.GarnetSyntheticTraffic.GarnetSyntheticTraffic object at 0x7f1ff78ba978>, <m5.objects.GarnetSyntheticTraffic.GarnetSyntheticTraffic object at 0x7f1ff78bac50>, <m5.objects.GarnetSyntheticTraffic.GarnetSyntheticTraffic object at 0x7f1ff78baf28>, <m5.objects.GarnetSyntheticTraffic.GarnetSyntheticTraffic object at 0x7f1ff78c1240>, <m5.objects.GarnetSyntheticTraffic.GarnetSyntheticTraffic object at 0x7f1ff78c1518>, <m5.objects.GarnetSyntheticTraffic.GarnetSyntheticTraffic object at 0x7f1ff78c17f0>, <m5.objects.GarnetSyntheticTraffic.GarnetSyntheticTraffic object at 0x7f1ff78c1ac8>, <m5.objects.GarnetSyntheticTraffic.GarnetSyntheticTraffic object at 0x7f1ff78c1da0>, <m5.objects.GarnetSyntheticTraffic.GarnetSyntheticTraffic object at 0x7f1ff78c90b8>, <m5.objects.GarnetSyntheticTraffic.GarnetSyntheticTraffic object at 0x7f1ff78c9390>, <m5.objects.GarnetSyntheticTraffic.GarnetSyntheticTraffic object at 0x7f1ff78c9668>, <m5.objects.GarnetSyntheticTraffic.GarnetSyntheticTraffic object at 0x7f1ff78c9908>, <m5.objects.GarnetSyntheticTraffic.GarnetSyntheticTraffic object at 0x7f1ff78c9be0>, <m5.objects.GarnetSyntheticTraffic.GarnetSyntheticTraffic object at 0x7f1ff78c9eb8>, <m5.objects.GarnetSyntheticTraffic.GarnetSyntheticTraffic object at 0x7f1ff78d21d0>, <m5.objects.GarnetSyntheticTraffic.GarnetSyntheticTraffic object at 0x7f1ff78d24a8>, <m5.objects.GarnetSyntheticTraffic.GarnetSyntheticTraffic object at 0x7f1ff78d2780>, <m5.objects.GarnetSyntheticTraffic.GarnetSyntheticTraffic object at 0x7f1ff78d2a58>, <m5.objects.GarnetSyntheticTraffic.GarnetSyntheticTraffic object at 0x7f1ff78d2d30>, <m5.objects.GarnetSyntheticTraffic.GarnetSyntheticTraffic object at 0x7f1ff78d9048>])
ingesting configs/topologies/nr_list_mclb/ns_s_scop_mclb.nrl
ingesting configs/topologies/vn_maps_mclb/ns_s_scop_mclb_hops_4vns.vn
ext_cdc_required = True
