
---------- Begin Simulation Statistics ----------
simSeconds                                   0.002147                       # Number of seconds simulated (Second)
simTicks                                   2147483750                       # Number of ticks simulated (Tick)
finalTick                                  2147483750                       # Number of ticks from beginning of simulation (restored from checkpoints and never reset) (Tick)
simFreq                                  1000000000000                       # The number of ticks per simulated second ((Tick/Second))
hostSeconds                                  26851.64                       # Real time elapsed on the host (Second)
hostTickRate                                    79976                       # The number of ticks simulated per host second (ticks/s) ((Tick/Second))
hostMemory                                   54902808                       # Number of bytes of host memory used (Byte)
system.clk_domain.clock                           250                       # Clock period in ticks (Tick)
system.cpu0.power_state.pwrStateResidencyTicks::UNDEFINED   2147483750                       # Cumulative time (in ticks) in various power states (Tick)
system.cpu1.power_state.pwrStateResidencyTicks::UNDEFINED   2147483750                       # Cumulative time (in ticks) in various power states (Tick)
system.cpu10.power_state.pwrStateResidencyTicks::UNDEFINED   2147483750                       # Cumulative time (in ticks) in various power states (Tick)
system.cpu11.power_state.pwrStateResidencyTicks::UNDEFINED   2147483750                       # Cumulative time (in ticks) in various power states (Tick)
system.cpu12.power_state.pwrStateResidencyTicks::UNDEFINED   2147483750                       # Cumulative time (in ticks) in various power states (Tick)
system.cpu13.power_state.pwrStateResidencyTicks::UNDEFINED   2147483750                       # Cumulative time (in ticks) in various power states (Tick)
system.cpu14.power_state.pwrStateResidencyTicks::UNDEFINED   2147483750                       # Cumulative time (in ticks) in various power states (Tick)
system.cpu15.power_state.pwrStateResidencyTicks::UNDEFINED   2147483750                       # Cumulative time (in ticks) in various power states (Tick)
system.cpu16.power_state.pwrStateResidencyTicks::UNDEFINED   2147483750                       # Cumulative time (in ticks) in various power states (Tick)
system.cpu17.power_state.pwrStateResidencyTicks::UNDEFINED   2147483750                       # Cumulative time (in ticks) in various power states (Tick)
system.cpu18.power_state.pwrStateResidencyTicks::UNDEFINED   2147483750                       # Cumulative time (in ticks) in various power states (Tick)
system.cpu19.power_state.pwrStateResidencyTicks::UNDEFINED   2147483750                       # Cumulative time (in ticks) in various power states (Tick)
system.cpu2.power_state.pwrStateResidencyTicks::UNDEFINED   2147483750                       # Cumulative time (in ticks) in various power states (Tick)
system.cpu20.power_state.pwrStateResidencyTicks::UNDEFINED   2147483750                       # Cumulative time (in ticks) in various power states (Tick)
system.cpu21.power_state.pwrStateResidencyTicks::UNDEFINED   2147483750                       # Cumulative time (in ticks) in various power states (Tick)
system.cpu22.power_state.pwrStateResidencyTicks::UNDEFINED   2147483750                       # Cumulative time (in ticks) in various power states (Tick)
system.cpu23.power_state.pwrStateResidencyTicks::UNDEFINED   2147483750                       # Cumulative time (in ticks) in various power states (Tick)
system.cpu24.power_state.pwrStateResidencyTicks::UNDEFINED   2147483750                       # Cumulative time (in ticks) in various power states (Tick)
system.cpu25.power_state.pwrStateResidencyTicks::UNDEFINED   2147483750                       # Cumulative time (in ticks) in various power states (Tick)
system.cpu26.power_state.pwrStateResidencyTicks::UNDEFINED   2147483750                       # Cumulative time (in ticks) in various power states (Tick)
system.cpu27.power_state.pwrStateResidencyTicks::UNDEFINED   2147483750                       # Cumulative time (in ticks) in various power states (Tick)
system.cpu28.power_state.pwrStateResidencyTicks::UNDEFINED   2147483750                       # Cumulative time (in ticks) in various power states (Tick)
system.cpu29.power_state.pwrStateResidencyTicks::UNDEFINED   2147483750                       # Cumulative time (in ticks) in various power states (Tick)
system.cpu3.power_state.pwrStateResidencyTicks::UNDEFINED   2147483750                       # Cumulative time (in ticks) in various power states (Tick)
system.cpu30.power_state.pwrStateResidencyTicks::UNDEFINED   2147483750                       # Cumulative time (in ticks) in various power states (Tick)
system.cpu31.power_state.pwrStateResidencyTicks::UNDEFINED   2147483750                       # Cumulative time (in ticks) in various power states (Tick)
system.cpu32.power_state.pwrStateResidencyTicks::UNDEFINED   2147483750                       # Cumulative time (in ticks) in various power states (Tick)
system.cpu33.power_state.pwrStateResidencyTicks::UNDEFINED   2147483750                       # Cumulative time (in ticks) in various power states (Tick)
system.cpu34.power_state.pwrStateResidencyTicks::UNDEFINED   2147483750                       # Cumulative time (in ticks) in various power states (Tick)
system.cpu35.power_state.pwrStateResidencyTicks::UNDEFINED   2147483750                       # Cumulative time (in ticks) in various power states (Tick)
system.cpu36.power_state.pwrStateResidencyTicks::UNDEFINED   2147483750                       # Cumulative time (in ticks) in various power states (Tick)
system.cpu37.power_state.pwrStateResidencyTicks::UNDEFINED   2147483750                       # Cumulative time (in ticks) in various power states (Tick)
system.cpu38.power_state.pwrStateResidencyTicks::UNDEFINED   2147483750                       # Cumulative time (in ticks) in various power states (Tick)
system.cpu39.power_state.pwrStateResidencyTicks::UNDEFINED   2147483750                       # Cumulative time (in ticks) in various power states (Tick)
system.cpu4.power_state.pwrStateResidencyTicks::UNDEFINED   2147483750                       # Cumulative time (in ticks) in various power states (Tick)
system.cpu40.power_state.pwrStateResidencyTicks::UNDEFINED   2147483750                       # Cumulative time (in ticks) in various power states (Tick)
system.cpu41.power_state.pwrStateResidencyTicks::UNDEFINED   2147483750                       # Cumulative time (in ticks) in various power states (Tick)
system.cpu42.power_state.pwrStateResidencyTicks::UNDEFINED   2147483750                       # Cumulative time (in ticks) in various power states (Tick)
system.cpu43.power_state.pwrStateResidencyTicks::UNDEFINED   2147483750                       # Cumulative time (in ticks) in various power states (Tick)
system.cpu44.power_state.pwrStateResidencyTicks::UNDEFINED   2147483750                       # Cumulative time (in ticks) in various power states (Tick)
system.cpu45.power_state.pwrStateResidencyTicks::UNDEFINED   2147483750                       # Cumulative time (in ticks) in various power states (Tick)
system.cpu46.power_state.pwrStateResidencyTicks::UNDEFINED   2147483750                       # Cumulative time (in ticks) in various power states (Tick)
system.cpu47.power_state.pwrStateResidencyTicks::UNDEFINED   2147483750                       # Cumulative time (in ticks) in various power states (Tick)
system.cpu48.power_state.pwrStateResidencyTicks::UNDEFINED   2147483750                       # Cumulative time (in ticks) in various power states (Tick)
system.cpu49.power_state.pwrStateResidencyTicks::UNDEFINED   2147483750                       # Cumulative time (in ticks) in various power states (Tick)
system.cpu5.power_state.pwrStateResidencyTicks::UNDEFINED   2147483750                       # Cumulative time (in ticks) in various power states (Tick)
system.cpu50.power_state.pwrStateResidencyTicks::UNDEFINED   2147483750                       # Cumulative time (in ticks) in various power states (Tick)
system.cpu51.power_state.pwrStateResidencyTicks::UNDEFINED   2147483750                       # Cumulative time (in ticks) in various power states (Tick)
system.cpu52.power_state.pwrStateResidencyTicks::UNDEFINED   2147483750                       # Cumulative time (in ticks) in various power states (Tick)
system.cpu53.power_state.pwrStateResidencyTicks::UNDEFINED   2147483750                       # Cumulative time (in ticks) in various power states (Tick)
system.cpu54.power_state.pwrStateResidencyTicks::UNDEFINED   2147483750                       # Cumulative time (in ticks) in various power states (Tick)
system.cpu55.power_state.pwrStateResidencyTicks::UNDEFINED   2147483750                       # Cumulative time (in ticks) in various power states (Tick)
system.cpu56.power_state.pwrStateResidencyTicks::UNDEFINED   2147483750                       # Cumulative time (in ticks) in various power states (Tick)
system.cpu57.power_state.pwrStateResidencyTicks::UNDEFINED   2147483750                       # Cumulative time (in ticks) in various power states (Tick)
system.cpu58.power_state.pwrStateResidencyTicks::UNDEFINED   2147483750                       # Cumulative time (in ticks) in various power states (Tick)
system.cpu59.power_state.pwrStateResidencyTicks::UNDEFINED   2147483750                       # Cumulative time (in ticks) in various power states (Tick)
system.cpu6.power_state.pwrStateResidencyTicks::UNDEFINED   2147483750                       # Cumulative time (in ticks) in various power states (Tick)
system.cpu60.power_state.pwrStateResidencyTicks::UNDEFINED   2147483750                       # Cumulative time (in ticks) in various power states (Tick)
system.cpu61.power_state.pwrStateResidencyTicks::UNDEFINED   2147483750                       # Cumulative time (in ticks) in various power states (Tick)
system.cpu62.power_state.pwrStateResidencyTicks::UNDEFINED   2147483750                       # Cumulative time (in ticks) in various power states (Tick)
system.cpu63.power_state.pwrStateResidencyTicks::UNDEFINED   2147483750                       # Cumulative time (in ticks) in various power states (Tick)
system.cpu7.power_state.pwrStateResidencyTicks::UNDEFINED   2147483750                       # Cumulative time (in ticks) in various power states (Tick)
system.cpu8.power_state.pwrStateResidencyTicks::UNDEFINED   2147483750                       # Cumulative time (in ticks) in various power states (Tick)
system.cpu9.power_state.pwrStateResidencyTicks::UNDEFINED   2147483750                       # Cumulative time (in ticks) in various power states (Tick)
system.mem_ctrls0.power_state.pwrStateResidencyTicks::UNDEFINED   2147483750                       # Cumulative time (in ticks) in various power states (Tick)
system.mem_ctrls1.power_state.pwrStateResidencyTicks::UNDEFINED   2147483750                       # Cumulative time (in ticks) in various power states (Tick)
system.mem_ctrls10.power_state.pwrStateResidencyTicks::UNDEFINED   2147483750                       # Cumulative time (in ticks) in various power states (Tick)
system.mem_ctrls100.power_state.pwrStateResidencyTicks::UNDEFINED   2147483750                       # Cumulative time (in ticks) in various power states (Tick)
system.mem_ctrls101.power_state.pwrStateResidencyTicks::UNDEFINED   2147483750                       # Cumulative time (in ticks) in various power states (Tick)
system.mem_ctrls102.power_state.pwrStateResidencyTicks::UNDEFINED   2147483750                       # Cumulative time (in ticks) in various power states (Tick)
system.mem_ctrls103.power_state.pwrStateResidencyTicks::UNDEFINED   2147483750                       # Cumulative time (in ticks) in various power states (Tick)
system.mem_ctrls104.power_state.pwrStateResidencyTicks::UNDEFINED   2147483750                       # Cumulative time (in ticks) in various power states (Tick)
system.mem_ctrls105.power_state.pwrStateResidencyTicks::UNDEFINED   2147483750                       # Cumulative time (in ticks) in various power states (Tick)
system.mem_ctrls106.power_state.pwrStateResidencyTicks::UNDEFINED   2147483750                       # Cumulative time (in ticks) in various power states (Tick)
system.mem_ctrls107.power_state.pwrStateResidencyTicks::UNDEFINED   2147483750                       # Cumulative time (in ticks) in various power states (Tick)
system.mem_ctrls108.power_state.pwrStateResidencyTicks::UNDEFINED   2147483750                       # Cumulative time (in ticks) in various power states (Tick)
system.mem_ctrls109.power_state.pwrStateResidencyTicks::UNDEFINED   2147483750                       # Cumulative time (in ticks) in various power states (Tick)
system.mem_ctrls11.power_state.pwrStateResidencyTicks::UNDEFINED   2147483750                       # Cumulative time (in ticks) in various power states (Tick)
system.mem_ctrls110.power_state.pwrStateResidencyTicks::UNDEFINED   2147483750                       # Cumulative time (in ticks) in various power states (Tick)
system.mem_ctrls111.power_state.pwrStateResidencyTicks::UNDEFINED   2147483750                       # Cumulative time (in ticks) in various power states (Tick)
system.mem_ctrls112.power_state.pwrStateResidencyTicks::UNDEFINED   2147483750                       # Cumulative time (in ticks) in various power states (Tick)
system.mem_ctrls113.power_state.pwrStateResidencyTicks::UNDEFINED   2147483750                       # Cumulative time (in ticks) in various power states (Tick)
system.mem_ctrls114.power_state.pwrStateResidencyTicks::UNDEFINED   2147483750                       # Cumulative time (in ticks) in various power states (Tick)
system.mem_ctrls115.power_state.pwrStateResidencyTicks::UNDEFINED   2147483750                       # Cumulative time (in ticks) in various power states (Tick)
system.mem_ctrls116.power_state.pwrStateResidencyTicks::UNDEFINED   2147483750                       # Cumulative time (in ticks) in various power states (Tick)
system.mem_ctrls117.power_state.pwrStateResidencyTicks::UNDEFINED   2147483750                       # Cumulative time (in ticks) in various power states (Tick)
system.mem_ctrls118.power_state.pwrStateResidencyTicks::UNDEFINED   2147483750                       # Cumulative time (in ticks) in various power states (Tick)
system.mem_ctrls119.power_state.pwrStateResidencyTicks::UNDEFINED   2147483750                       # Cumulative time (in ticks) in various power states (Tick)
system.mem_ctrls12.power_state.pwrStateResidencyTicks::UNDEFINED   2147483750                       # Cumulative time (in ticks) in various power states (Tick)
system.mem_ctrls120.power_state.pwrStateResidencyTicks::UNDEFINED   2147483750                       # Cumulative time (in ticks) in various power states (Tick)
system.mem_ctrls121.power_state.pwrStateResidencyTicks::UNDEFINED   2147483750                       # Cumulative time (in ticks) in various power states (Tick)
system.mem_ctrls122.power_state.pwrStateResidencyTicks::UNDEFINED   2147483750                       # Cumulative time (in ticks) in various power states (Tick)
system.mem_ctrls123.power_state.pwrStateResidencyTicks::UNDEFINED   2147483750                       # Cumulative time (in ticks) in various power states (Tick)
system.mem_ctrls124.power_state.pwrStateResidencyTicks::UNDEFINED   2147483750                       # Cumulative time (in ticks) in various power states (Tick)
system.mem_ctrls125.power_state.pwrStateResidencyTicks::UNDEFINED   2147483750                       # Cumulative time (in ticks) in various power states (Tick)
system.mem_ctrls126.power_state.pwrStateResidencyTicks::UNDEFINED   2147483750                       # Cumulative time (in ticks) in various power states (Tick)
system.mem_ctrls127.power_state.pwrStateResidencyTicks::UNDEFINED   2147483750                       # Cumulative time (in ticks) in various power states (Tick)
system.mem_ctrls128.power_state.pwrStateResidencyTicks::UNDEFINED   2147483750                       # Cumulative time (in ticks) in various power states (Tick)
system.mem_ctrls129.power_state.pwrStateResidencyTicks::UNDEFINED   2147483750                       # Cumulative time (in ticks) in various power states (Tick)
system.mem_ctrls13.power_state.pwrStateResidencyTicks::UNDEFINED   2147483750                       # Cumulative time (in ticks) in various power states (Tick)
system.mem_ctrls130.power_state.pwrStateResidencyTicks::UNDEFINED   2147483750                       # Cumulative time (in ticks) in various power states (Tick)
system.mem_ctrls131.power_state.pwrStateResidencyTicks::UNDEFINED   2147483750                       # Cumulative time (in ticks) in various power states (Tick)
system.mem_ctrls132.power_state.pwrStateResidencyTicks::UNDEFINED   2147483750                       # Cumulative time (in ticks) in various power states (Tick)
system.mem_ctrls133.power_state.pwrStateResidencyTicks::UNDEFINED   2147483750                       # Cumulative time (in ticks) in various power states (Tick)
system.mem_ctrls134.power_state.pwrStateResidencyTicks::UNDEFINED   2147483750                       # Cumulative time (in ticks) in various power states (Tick)
system.mem_ctrls135.power_state.pwrStateResidencyTicks::UNDEFINED   2147483750                       # Cumulative time (in ticks) in various power states (Tick)
system.mem_ctrls136.power_state.pwrStateResidencyTicks::UNDEFINED   2147483750                       # Cumulative time (in ticks) in various power states (Tick)
system.mem_ctrls137.power_state.pwrStateResidencyTicks::UNDEFINED   2147483750                       # Cumulative time (in ticks) in various power states (Tick)
system.mem_ctrls138.power_state.pwrStateResidencyTicks::UNDEFINED   2147483750                       # Cumulative time (in ticks) in various power states (Tick)
system.mem_ctrls139.power_state.pwrStateResidencyTicks::UNDEFINED   2147483750                       # Cumulative time (in ticks) in various power states (Tick)
system.mem_ctrls14.power_state.pwrStateResidencyTicks::UNDEFINED   2147483750                       # Cumulative time (in ticks) in various power states (Tick)
system.mem_ctrls140.power_state.pwrStateResidencyTicks::UNDEFINED   2147483750                       # Cumulative time (in ticks) in various power states (Tick)
system.mem_ctrls141.power_state.pwrStateResidencyTicks::UNDEFINED   2147483750                       # Cumulative time (in ticks) in various power states (Tick)
system.mem_ctrls142.power_state.pwrStateResidencyTicks::UNDEFINED   2147483750                       # Cumulative time (in ticks) in various power states (Tick)
system.mem_ctrls143.power_state.pwrStateResidencyTicks::UNDEFINED   2147483750                       # Cumulative time (in ticks) in various power states (Tick)
system.mem_ctrls144.power_state.pwrStateResidencyTicks::UNDEFINED   2147483750                       # Cumulative time (in ticks) in various power states (Tick)
system.mem_ctrls145.power_state.pwrStateResidencyTicks::UNDEFINED   2147483750                       # Cumulative time (in ticks) in various power states (Tick)
system.mem_ctrls146.power_state.pwrStateResidencyTicks::UNDEFINED   2147483750                       # Cumulative time (in ticks) in various power states (Tick)
system.mem_ctrls147.power_state.pwrStateResidencyTicks::UNDEFINED   2147483750                       # Cumulative time (in ticks) in various power states (Tick)
system.mem_ctrls148.power_state.pwrStateResidencyTicks::UNDEFINED   2147483750                       # Cumulative time (in ticks) in various power states (Tick)
system.mem_ctrls149.power_state.pwrStateResidencyTicks::UNDEFINED   2147483750                       # Cumulative time (in ticks) in various power states (Tick)
system.mem_ctrls15.power_state.pwrStateResidencyTicks::UNDEFINED   2147483750                       # Cumulative time (in ticks) in various power states (Tick)
system.mem_ctrls150.power_state.pwrStateResidencyTicks::UNDEFINED   2147483750                       # Cumulative time (in ticks) in various power states (Tick)
system.mem_ctrls151.power_state.pwrStateResidencyTicks::UNDEFINED   2147483750                       # Cumulative time (in ticks) in various power states (Tick)
system.mem_ctrls152.power_state.pwrStateResidencyTicks::UNDEFINED   2147483750                       # Cumulative time (in ticks) in various power states (Tick)
system.mem_ctrls153.power_state.pwrStateResidencyTicks::UNDEFINED   2147483750                       # Cumulative time (in ticks) in various power states (Tick)
system.mem_ctrls154.power_state.pwrStateResidencyTicks::UNDEFINED   2147483750                       # Cumulative time (in ticks) in various power states (Tick)
system.mem_ctrls155.power_state.pwrStateResidencyTicks::UNDEFINED   2147483750                       # Cumulative time (in ticks) in various power states (Tick)
system.mem_ctrls156.power_state.pwrStateResidencyTicks::UNDEFINED   2147483750                       # Cumulative time (in ticks) in various power states (Tick)
system.mem_ctrls157.power_state.pwrStateResidencyTicks::UNDEFINED   2147483750                       # Cumulative time (in ticks) in various power states (Tick)
system.mem_ctrls158.power_state.pwrStateResidencyTicks::UNDEFINED   2147483750                       # Cumulative time (in ticks) in various power states (Tick)
system.mem_ctrls159.power_state.pwrStateResidencyTicks::UNDEFINED   2147483750                       # Cumulative time (in ticks) in various power states (Tick)
system.mem_ctrls16.power_state.pwrStateResidencyTicks::UNDEFINED   2147483750                       # Cumulative time (in ticks) in various power states (Tick)
system.mem_ctrls160.power_state.pwrStateResidencyTicks::UNDEFINED   2147483750                       # Cumulative time (in ticks) in various power states (Tick)
system.mem_ctrls161.power_state.pwrStateResidencyTicks::UNDEFINED   2147483750                       # Cumulative time (in ticks) in various power states (Tick)
system.mem_ctrls162.power_state.pwrStateResidencyTicks::UNDEFINED   2147483750                       # Cumulative time (in ticks) in various power states (Tick)
system.mem_ctrls163.power_state.pwrStateResidencyTicks::UNDEFINED   2147483750                       # Cumulative time (in ticks) in various power states (Tick)
system.mem_ctrls164.power_state.pwrStateResidencyTicks::UNDEFINED   2147483750                       # Cumulative time (in ticks) in various power states (Tick)
system.mem_ctrls165.power_state.pwrStateResidencyTicks::UNDEFINED   2147483750                       # Cumulative time (in ticks) in various power states (Tick)
system.mem_ctrls166.power_state.pwrStateResidencyTicks::UNDEFINED   2147483750                       # Cumulative time (in ticks) in various power states (Tick)
system.mem_ctrls167.power_state.pwrStateResidencyTicks::UNDEFINED   2147483750                       # Cumulative time (in ticks) in various power states (Tick)
system.mem_ctrls168.power_state.pwrStateResidencyTicks::UNDEFINED   2147483750                       # Cumulative time (in ticks) in various power states (Tick)
system.mem_ctrls169.power_state.pwrStateResidencyTicks::UNDEFINED   2147483750                       # Cumulative time (in ticks) in various power states (Tick)
system.mem_ctrls17.power_state.pwrStateResidencyTicks::UNDEFINED   2147483750                       # Cumulative time (in ticks) in various power states (Tick)
system.mem_ctrls170.power_state.pwrStateResidencyTicks::UNDEFINED   2147483750                       # Cumulative time (in ticks) in various power states (Tick)
system.mem_ctrls171.power_state.pwrStateResidencyTicks::UNDEFINED   2147483750                       # Cumulative time (in ticks) in various power states (Tick)
system.mem_ctrls172.power_state.pwrStateResidencyTicks::UNDEFINED   2147483750                       # Cumulative time (in ticks) in various power states (Tick)
system.mem_ctrls173.power_state.pwrStateResidencyTicks::UNDEFINED   2147483750                       # Cumulative time (in ticks) in various power states (Tick)
system.mem_ctrls174.power_state.pwrStateResidencyTicks::UNDEFINED   2147483750                       # Cumulative time (in ticks) in various power states (Tick)
system.mem_ctrls175.power_state.pwrStateResidencyTicks::UNDEFINED   2147483750                       # Cumulative time (in ticks) in various power states (Tick)
system.mem_ctrls176.power_state.pwrStateResidencyTicks::UNDEFINED   2147483750                       # Cumulative time (in ticks) in various power states (Tick)
system.mem_ctrls177.power_state.pwrStateResidencyTicks::UNDEFINED   2147483750                       # Cumulative time (in ticks) in various power states (Tick)
system.mem_ctrls178.power_state.pwrStateResidencyTicks::UNDEFINED   2147483750                       # Cumulative time (in ticks) in various power states (Tick)
system.mem_ctrls179.power_state.pwrStateResidencyTicks::UNDEFINED   2147483750                       # Cumulative time (in ticks) in various power states (Tick)
system.mem_ctrls18.power_state.pwrStateResidencyTicks::UNDEFINED   2147483750                       # Cumulative time (in ticks) in various power states (Tick)
system.mem_ctrls180.power_state.pwrStateResidencyTicks::UNDEFINED   2147483750                       # Cumulative time (in ticks) in various power states (Tick)
system.mem_ctrls181.power_state.pwrStateResidencyTicks::UNDEFINED   2147483750                       # Cumulative time (in ticks) in various power states (Tick)
system.mem_ctrls182.power_state.pwrStateResidencyTicks::UNDEFINED   2147483750                       # Cumulative time (in ticks) in various power states (Tick)
system.mem_ctrls183.power_state.pwrStateResidencyTicks::UNDEFINED   2147483750                       # Cumulative time (in ticks) in various power states (Tick)
system.mem_ctrls184.power_state.pwrStateResidencyTicks::UNDEFINED   2147483750                       # Cumulative time (in ticks) in various power states (Tick)
system.mem_ctrls185.power_state.pwrStateResidencyTicks::UNDEFINED   2147483750                       # Cumulative time (in ticks) in various power states (Tick)
system.mem_ctrls186.power_state.pwrStateResidencyTicks::UNDEFINED   2147483750                       # Cumulative time (in ticks) in various power states (Tick)
system.mem_ctrls187.power_state.pwrStateResidencyTicks::UNDEFINED   2147483750                       # Cumulative time (in ticks) in various power states (Tick)
system.mem_ctrls188.power_state.pwrStateResidencyTicks::UNDEFINED   2147483750                       # Cumulative time (in ticks) in various power states (Tick)
system.mem_ctrls189.power_state.pwrStateResidencyTicks::UNDEFINED   2147483750                       # Cumulative time (in ticks) in various power states (Tick)
system.mem_ctrls19.power_state.pwrStateResidencyTicks::UNDEFINED   2147483750                       # Cumulative time (in ticks) in various power states (Tick)
system.mem_ctrls190.power_state.pwrStateResidencyTicks::UNDEFINED   2147483750                       # Cumulative time (in ticks) in various power states (Tick)
system.mem_ctrls191.power_state.pwrStateResidencyTicks::UNDEFINED   2147483750                       # Cumulative time (in ticks) in various power states (Tick)
system.mem_ctrls192.power_state.pwrStateResidencyTicks::UNDEFINED   2147483750                       # Cumulative time (in ticks) in various power states (Tick)
system.mem_ctrls193.power_state.pwrStateResidencyTicks::UNDEFINED   2147483750                       # Cumulative time (in ticks) in various power states (Tick)
system.mem_ctrls194.power_state.pwrStateResidencyTicks::UNDEFINED   2147483750                       # Cumulative time (in ticks) in various power states (Tick)
system.mem_ctrls195.power_state.pwrStateResidencyTicks::UNDEFINED   2147483750                       # Cumulative time (in ticks) in various power states (Tick)
system.mem_ctrls196.power_state.pwrStateResidencyTicks::UNDEFINED   2147483750                       # Cumulative time (in ticks) in various power states (Tick)
system.mem_ctrls197.power_state.pwrStateResidencyTicks::UNDEFINED   2147483750                       # Cumulative time (in ticks) in various power states (Tick)
system.mem_ctrls198.power_state.pwrStateResidencyTicks::UNDEFINED   2147483750                       # Cumulative time (in ticks) in various power states (Tick)
system.mem_ctrls199.power_state.pwrStateResidencyTicks::UNDEFINED   2147483750                       # Cumulative time (in ticks) in various power states (Tick)
system.mem_ctrls2.power_state.pwrStateResidencyTicks::UNDEFINED   2147483750                       # Cumulative time (in ticks) in various power states (Tick)
system.mem_ctrls20.power_state.pwrStateResidencyTicks::UNDEFINED   2147483750                       # Cumulative time (in ticks) in various power states (Tick)
system.mem_ctrls200.power_state.pwrStateResidencyTicks::UNDEFINED   2147483750                       # Cumulative time (in ticks) in various power states (Tick)
system.mem_ctrls201.power_state.pwrStateResidencyTicks::UNDEFINED   2147483750                       # Cumulative time (in ticks) in various power states (Tick)
system.mem_ctrls202.power_state.pwrStateResidencyTicks::UNDEFINED   2147483750                       # Cumulative time (in ticks) in various power states (Tick)
system.mem_ctrls203.power_state.pwrStateResidencyTicks::UNDEFINED   2147483750                       # Cumulative time (in ticks) in various power states (Tick)
system.mem_ctrls204.power_state.pwrStateResidencyTicks::UNDEFINED   2147483750                       # Cumulative time (in ticks) in various power states (Tick)
system.mem_ctrls205.power_state.pwrStateResidencyTicks::UNDEFINED   2147483750                       # Cumulative time (in ticks) in various power states (Tick)
system.mem_ctrls206.power_state.pwrStateResidencyTicks::UNDEFINED   2147483750                       # Cumulative time (in ticks) in various power states (Tick)
system.mem_ctrls207.power_state.pwrStateResidencyTicks::UNDEFINED   2147483750                       # Cumulative time (in ticks) in various power states (Tick)
system.mem_ctrls208.power_state.pwrStateResidencyTicks::UNDEFINED   2147483750                       # Cumulative time (in ticks) in various power states (Tick)
system.mem_ctrls209.power_state.pwrStateResidencyTicks::UNDEFINED   2147483750                       # Cumulative time (in ticks) in various power states (Tick)
system.mem_ctrls21.power_state.pwrStateResidencyTicks::UNDEFINED   2147483750                       # Cumulative time (in ticks) in various power states (Tick)
system.mem_ctrls210.power_state.pwrStateResidencyTicks::UNDEFINED   2147483750                       # Cumulative time (in ticks) in various power states (Tick)
system.mem_ctrls211.power_state.pwrStateResidencyTicks::UNDEFINED   2147483750                       # Cumulative time (in ticks) in various power states (Tick)
system.mem_ctrls212.power_state.pwrStateResidencyTicks::UNDEFINED   2147483750                       # Cumulative time (in ticks) in various power states (Tick)
system.mem_ctrls213.power_state.pwrStateResidencyTicks::UNDEFINED   2147483750                       # Cumulative time (in ticks) in various power states (Tick)
system.mem_ctrls214.power_state.pwrStateResidencyTicks::UNDEFINED   2147483750                       # Cumulative time (in ticks) in various power states (Tick)
system.mem_ctrls215.power_state.pwrStateResidencyTicks::UNDEFINED   2147483750                       # Cumulative time (in ticks) in various power states (Tick)
system.mem_ctrls216.power_state.pwrStateResidencyTicks::UNDEFINED   2147483750                       # Cumulative time (in ticks) in various power states (Tick)
system.mem_ctrls217.power_state.pwrStateResidencyTicks::UNDEFINED   2147483750                       # Cumulative time (in ticks) in various power states (Tick)
system.mem_ctrls218.power_state.pwrStateResidencyTicks::UNDEFINED   2147483750                       # Cumulative time (in ticks) in various power states (Tick)
system.mem_ctrls219.power_state.pwrStateResidencyTicks::UNDEFINED   2147483750                       # Cumulative time (in ticks) in various power states (Tick)
system.mem_ctrls22.power_state.pwrStateResidencyTicks::UNDEFINED   2147483750                       # Cumulative time (in ticks) in various power states (Tick)
system.mem_ctrls220.power_state.pwrStateResidencyTicks::UNDEFINED   2147483750                       # Cumulative time (in ticks) in various power states (Tick)
system.mem_ctrls221.power_state.pwrStateResidencyTicks::UNDEFINED   2147483750                       # Cumulative time (in ticks) in various power states (Tick)
system.mem_ctrls222.power_state.pwrStateResidencyTicks::UNDEFINED   2147483750                       # Cumulative time (in ticks) in various power states (Tick)
system.mem_ctrls223.power_state.pwrStateResidencyTicks::UNDEFINED   2147483750                       # Cumulative time (in ticks) in various power states (Tick)
system.mem_ctrls224.power_state.pwrStateResidencyTicks::UNDEFINED   2147483750                       # Cumulative time (in ticks) in various power states (Tick)
system.mem_ctrls225.power_state.pwrStateResidencyTicks::UNDEFINED   2147483750                       # Cumulative time (in ticks) in various power states (Tick)
system.mem_ctrls226.power_state.pwrStateResidencyTicks::UNDEFINED   2147483750                       # Cumulative time (in ticks) in various power states (Tick)
system.mem_ctrls227.power_state.pwrStateResidencyTicks::UNDEFINED   2147483750                       # Cumulative time (in ticks) in various power states (Tick)
system.mem_ctrls228.power_state.pwrStateResidencyTicks::UNDEFINED   2147483750                       # Cumulative time (in ticks) in various power states (Tick)
system.mem_ctrls229.power_state.pwrStateResidencyTicks::UNDEFINED   2147483750                       # Cumulative time (in ticks) in various power states (Tick)
system.mem_ctrls23.power_state.pwrStateResidencyTicks::UNDEFINED   2147483750                       # Cumulative time (in ticks) in various power states (Tick)
system.mem_ctrls230.power_state.pwrStateResidencyTicks::UNDEFINED   2147483750                       # Cumulative time (in ticks) in various power states (Tick)
system.mem_ctrls231.power_state.pwrStateResidencyTicks::UNDEFINED   2147483750                       # Cumulative time (in ticks) in various power states (Tick)
system.mem_ctrls232.power_state.pwrStateResidencyTicks::UNDEFINED   2147483750                       # Cumulative time (in ticks) in various power states (Tick)
system.mem_ctrls233.power_state.pwrStateResidencyTicks::UNDEFINED   2147483750                       # Cumulative time (in ticks) in various power states (Tick)
system.mem_ctrls234.power_state.pwrStateResidencyTicks::UNDEFINED   2147483750                       # Cumulative time (in ticks) in various power states (Tick)
system.mem_ctrls235.power_state.pwrStateResidencyTicks::UNDEFINED   2147483750                       # Cumulative time (in ticks) in various power states (Tick)
system.mem_ctrls236.power_state.pwrStateResidencyTicks::UNDEFINED   2147483750                       # Cumulative time (in ticks) in various power states (Tick)
system.mem_ctrls237.power_state.pwrStateResidencyTicks::UNDEFINED   2147483750                       # Cumulative time (in ticks) in various power states (Tick)
system.mem_ctrls238.power_state.pwrStateResidencyTicks::UNDEFINED   2147483750                       # Cumulative time (in ticks) in various power states (Tick)
system.mem_ctrls239.power_state.pwrStateResidencyTicks::UNDEFINED   2147483750                       # Cumulative time (in ticks) in various power states (Tick)
system.mem_ctrls24.power_state.pwrStateResidencyTicks::UNDEFINED   2147483750                       # Cumulative time (in ticks) in various power states (Tick)
system.mem_ctrls240.power_state.pwrStateResidencyTicks::UNDEFINED   2147483750                       # Cumulative time (in ticks) in various power states (Tick)
system.mem_ctrls241.power_state.pwrStateResidencyTicks::UNDEFINED   2147483750                       # Cumulative time (in ticks) in various power states (Tick)
system.mem_ctrls242.power_state.pwrStateResidencyTicks::UNDEFINED   2147483750                       # Cumulative time (in ticks) in various power states (Tick)
system.mem_ctrls243.power_state.pwrStateResidencyTicks::UNDEFINED   2147483750                       # Cumulative time (in ticks) in various power states (Tick)
system.mem_ctrls244.power_state.pwrStateResidencyTicks::UNDEFINED   2147483750                       # Cumulative time (in ticks) in various power states (Tick)
system.mem_ctrls245.power_state.pwrStateResidencyTicks::UNDEFINED   2147483750                       # Cumulative time (in ticks) in various power states (Tick)
system.mem_ctrls246.power_state.pwrStateResidencyTicks::UNDEFINED   2147483750                       # Cumulative time (in ticks) in various power states (Tick)
system.mem_ctrls247.power_state.pwrStateResidencyTicks::UNDEFINED   2147483750                       # Cumulative time (in ticks) in various power states (Tick)
system.mem_ctrls248.power_state.pwrStateResidencyTicks::UNDEFINED   2147483750                       # Cumulative time (in ticks) in various power states (Tick)
system.mem_ctrls249.power_state.pwrStateResidencyTicks::UNDEFINED   2147483750                       # Cumulative time (in ticks) in various power states (Tick)
system.mem_ctrls25.power_state.pwrStateResidencyTicks::UNDEFINED   2147483750                       # Cumulative time (in ticks) in various power states (Tick)
system.mem_ctrls250.power_state.pwrStateResidencyTicks::UNDEFINED   2147483750                       # Cumulative time (in ticks) in various power states (Tick)
system.mem_ctrls251.power_state.pwrStateResidencyTicks::UNDEFINED   2147483750                       # Cumulative time (in ticks) in various power states (Tick)
system.mem_ctrls252.power_state.pwrStateResidencyTicks::UNDEFINED   2147483750                       # Cumulative time (in ticks) in various power states (Tick)
system.mem_ctrls253.power_state.pwrStateResidencyTicks::UNDEFINED   2147483750                       # Cumulative time (in ticks) in various power states (Tick)
system.mem_ctrls254.power_state.pwrStateResidencyTicks::UNDEFINED   2147483750                       # Cumulative time (in ticks) in various power states (Tick)
system.mem_ctrls255.power_state.pwrStateResidencyTicks::UNDEFINED   2147483750                       # Cumulative time (in ticks) in various power states (Tick)
system.mem_ctrls26.power_state.pwrStateResidencyTicks::UNDEFINED   2147483750                       # Cumulative time (in ticks) in various power states (Tick)
system.mem_ctrls27.power_state.pwrStateResidencyTicks::UNDEFINED   2147483750                       # Cumulative time (in ticks) in various power states (Tick)
system.mem_ctrls28.power_state.pwrStateResidencyTicks::UNDEFINED   2147483750                       # Cumulative time (in ticks) in various power states (Tick)
system.mem_ctrls29.power_state.pwrStateResidencyTicks::UNDEFINED   2147483750                       # Cumulative time (in ticks) in various power states (Tick)
system.mem_ctrls3.power_state.pwrStateResidencyTicks::UNDEFINED   2147483750                       # Cumulative time (in ticks) in various power states (Tick)
system.mem_ctrls30.power_state.pwrStateResidencyTicks::UNDEFINED   2147483750                       # Cumulative time (in ticks) in various power states (Tick)
system.mem_ctrls31.power_state.pwrStateResidencyTicks::UNDEFINED   2147483750                       # Cumulative time (in ticks) in various power states (Tick)
system.mem_ctrls32.power_state.pwrStateResidencyTicks::UNDEFINED   2147483750                       # Cumulative time (in ticks) in various power states (Tick)
system.mem_ctrls33.power_state.pwrStateResidencyTicks::UNDEFINED   2147483750                       # Cumulative time (in ticks) in various power states (Tick)
system.mem_ctrls34.power_state.pwrStateResidencyTicks::UNDEFINED   2147483750                       # Cumulative time (in ticks) in various power states (Tick)
system.mem_ctrls35.power_state.pwrStateResidencyTicks::UNDEFINED   2147483750                       # Cumulative time (in ticks) in various power states (Tick)
system.mem_ctrls36.power_state.pwrStateResidencyTicks::UNDEFINED   2147483750                       # Cumulative time (in ticks) in various power states (Tick)
system.mem_ctrls37.power_state.pwrStateResidencyTicks::UNDEFINED   2147483750                       # Cumulative time (in ticks) in various power states (Tick)
system.mem_ctrls38.power_state.pwrStateResidencyTicks::UNDEFINED   2147483750                       # Cumulative time (in ticks) in various power states (Tick)
system.mem_ctrls39.power_state.pwrStateResidencyTicks::UNDEFINED   2147483750                       # Cumulative time (in ticks) in various power states (Tick)
system.mem_ctrls4.power_state.pwrStateResidencyTicks::UNDEFINED   2147483750                       # Cumulative time (in ticks) in various power states (Tick)
system.mem_ctrls40.power_state.pwrStateResidencyTicks::UNDEFINED   2147483750                       # Cumulative time (in ticks) in various power states (Tick)
system.mem_ctrls41.power_state.pwrStateResidencyTicks::UNDEFINED   2147483750                       # Cumulative time (in ticks) in various power states (Tick)
system.mem_ctrls42.power_state.pwrStateResidencyTicks::UNDEFINED   2147483750                       # Cumulative time (in ticks) in various power states (Tick)
system.mem_ctrls43.power_state.pwrStateResidencyTicks::UNDEFINED   2147483750                       # Cumulative time (in ticks) in various power states (Tick)
system.mem_ctrls44.power_state.pwrStateResidencyTicks::UNDEFINED   2147483750                       # Cumulative time (in ticks) in various power states (Tick)
system.mem_ctrls45.power_state.pwrStateResidencyTicks::UNDEFINED   2147483750                       # Cumulative time (in ticks) in various power states (Tick)
system.mem_ctrls46.power_state.pwrStateResidencyTicks::UNDEFINED   2147483750                       # Cumulative time (in ticks) in various power states (Tick)
system.mem_ctrls47.power_state.pwrStateResidencyTicks::UNDEFINED   2147483750                       # Cumulative time (in ticks) in various power states (Tick)
system.mem_ctrls48.power_state.pwrStateResidencyTicks::UNDEFINED   2147483750                       # Cumulative time (in ticks) in various power states (Tick)
system.mem_ctrls49.power_state.pwrStateResidencyTicks::UNDEFINED   2147483750                       # Cumulative time (in ticks) in various power states (Tick)
system.mem_ctrls5.power_state.pwrStateResidencyTicks::UNDEFINED   2147483750                       # Cumulative time (in ticks) in various power states (Tick)
system.mem_ctrls50.power_state.pwrStateResidencyTicks::UNDEFINED   2147483750                       # Cumulative time (in ticks) in various power states (Tick)
system.mem_ctrls51.power_state.pwrStateResidencyTicks::UNDEFINED   2147483750                       # Cumulative time (in ticks) in various power states (Tick)
system.mem_ctrls52.power_state.pwrStateResidencyTicks::UNDEFINED   2147483750                       # Cumulative time (in ticks) in various power states (Tick)
system.mem_ctrls53.power_state.pwrStateResidencyTicks::UNDEFINED   2147483750                       # Cumulative time (in ticks) in various power states (Tick)
system.mem_ctrls54.power_state.pwrStateResidencyTicks::UNDEFINED   2147483750                       # Cumulative time (in ticks) in various power states (Tick)
system.mem_ctrls55.power_state.pwrStateResidencyTicks::UNDEFINED   2147483750                       # Cumulative time (in ticks) in various power states (Tick)
system.mem_ctrls56.power_state.pwrStateResidencyTicks::UNDEFINED   2147483750                       # Cumulative time (in ticks) in various power states (Tick)
system.mem_ctrls57.power_state.pwrStateResidencyTicks::UNDEFINED   2147483750                       # Cumulative time (in ticks) in various power states (Tick)
system.mem_ctrls58.power_state.pwrStateResidencyTicks::UNDEFINED   2147483750                       # Cumulative time (in ticks) in various power states (Tick)
system.mem_ctrls59.power_state.pwrStateResidencyTicks::UNDEFINED   2147483750                       # Cumulative time (in ticks) in various power states (Tick)
system.mem_ctrls6.power_state.pwrStateResidencyTicks::UNDEFINED   2147483750                       # Cumulative time (in ticks) in various power states (Tick)
system.mem_ctrls60.power_state.pwrStateResidencyTicks::UNDEFINED   2147483750                       # Cumulative time (in ticks) in various power states (Tick)
system.mem_ctrls61.power_state.pwrStateResidencyTicks::UNDEFINED   2147483750                       # Cumulative time (in ticks) in various power states (Tick)
system.mem_ctrls62.power_state.pwrStateResidencyTicks::UNDEFINED   2147483750                       # Cumulative time (in ticks) in various power states (Tick)
system.mem_ctrls63.power_state.pwrStateResidencyTicks::UNDEFINED   2147483750                       # Cumulative time (in ticks) in various power states (Tick)
system.mem_ctrls64.power_state.pwrStateResidencyTicks::UNDEFINED   2147483750                       # Cumulative time (in ticks) in various power states (Tick)
system.mem_ctrls65.power_state.pwrStateResidencyTicks::UNDEFINED   2147483750                       # Cumulative time (in ticks) in various power states (Tick)
system.mem_ctrls66.power_state.pwrStateResidencyTicks::UNDEFINED   2147483750                       # Cumulative time (in ticks) in various power states (Tick)
system.mem_ctrls67.power_state.pwrStateResidencyTicks::UNDEFINED   2147483750                       # Cumulative time (in ticks) in various power states (Tick)
system.mem_ctrls68.power_state.pwrStateResidencyTicks::UNDEFINED   2147483750                       # Cumulative time (in ticks) in various power states (Tick)
system.mem_ctrls69.power_state.pwrStateResidencyTicks::UNDEFINED   2147483750                       # Cumulative time (in ticks) in various power states (Tick)
system.mem_ctrls7.power_state.pwrStateResidencyTicks::UNDEFINED   2147483750                       # Cumulative time (in ticks) in various power states (Tick)
system.mem_ctrls70.power_state.pwrStateResidencyTicks::UNDEFINED   2147483750                       # Cumulative time (in ticks) in various power states (Tick)
system.mem_ctrls71.power_state.pwrStateResidencyTicks::UNDEFINED   2147483750                       # Cumulative time (in ticks) in various power states (Tick)
system.mem_ctrls72.power_state.pwrStateResidencyTicks::UNDEFINED   2147483750                       # Cumulative time (in ticks) in various power states (Tick)
system.mem_ctrls73.power_state.pwrStateResidencyTicks::UNDEFINED   2147483750                       # Cumulative time (in ticks) in various power states (Tick)
system.mem_ctrls74.power_state.pwrStateResidencyTicks::UNDEFINED   2147483750                       # Cumulative time (in ticks) in various power states (Tick)
system.mem_ctrls75.power_state.pwrStateResidencyTicks::UNDEFINED   2147483750                       # Cumulative time (in ticks) in various power states (Tick)
system.mem_ctrls76.power_state.pwrStateResidencyTicks::UNDEFINED   2147483750                       # Cumulative time (in ticks) in various power states (Tick)
system.mem_ctrls77.power_state.pwrStateResidencyTicks::UNDEFINED   2147483750                       # Cumulative time (in ticks) in various power states (Tick)
system.mem_ctrls78.power_state.pwrStateResidencyTicks::UNDEFINED   2147483750                       # Cumulative time (in ticks) in various power states (Tick)
system.mem_ctrls79.power_state.pwrStateResidencyTicks::UNDEFINED   2147483750                       # Cumulative time (in ticks) in various power states (Tick)
system.mem_ctrls8.power_state.pwrStateResidencyTicks::UNDEFINED   2147483750                       # Cumulative time (in ticks) in various power states (Tick)
system.mem_ctrls80.power_state.pwrStateResidencyTicks::UNDEFINED   2147483750                       # Cumulative time (in ticks) in various power states (Tick)
system.mem_ctrls81.power_state.pwrStateResidencyTicks::UNDEFINED   2147483750                       # Cumulative time (in ticks) in various power states (Tick)
system.mem_ctrls82.power_state.pwrStateResidencyTicks::UNDEFINED   2147483750                       # Cumulative time (in ticks) in various power states (Tick)
system.mem_ctrls83.power_state.pwrStateResidencyTicks::UNDEFINED   2147483750                       # Cumulative time (in ticks) in various power states (Tick)
system.mem_ctrls84.power_state.pwrStateResidencyTicks::UNDEFINED   2147483750                       # Cumulative time (in ticks) in various power states (Tick)
system.mem_ctrls85.power_state.pwrStateResidencyTicks::UNDEFINED   2147483750                       # Cumulative time (in ticks) in various power states (Tick)
system.mem_ctrls86.power_state.pwrStateResidencyTicks::UNDEFINED   2147483750                       # Cumulative time (in ticks) in various power states (Tick)
system.mem_ctrls87.power_state.pwrStateResidencyTicks::UNDEFINED   2147483750                       # Cumulative time (in ticks) in various power states (Tick)
system.mem_ctrls88.power_state.pwrStateResidencyTicks::UNDEFINED   2147483750                       # Cumulative time (in ticks) in various power states (Tick)
system.mem_ctrls89.power_state.pwrStateResidencyTicks::UNDEFINED   2147483750                       # Cumulative time (in ticks) in various power states (Tick)
system.mem_ctrls9.power_state.pwrStateResidencyTicks::UNDEFINED   2147483750                       # Cumulative time (in ticks) in various power states (Tick)
system.mem_ctrls90.power_state.pwrStateResidencyTicks::UNDEFINED   2147483750                       # Cumulative time (in ticks) in various power states (Tick)
system.mem_ctrls91.power_state.pwrStateResidencyTicks::UNDEFINED   2147483750                       # Cumulative time (in ticks) in various power states (Tick)
system.mem_ctrls92.power_state.pwrStateResidencyTicks::UNDEFINED   2147483750                       # Cumulative time (in ticks) in various power states (Tick)
system.mem_ctrls93.power_state.pwrStateResidencyTicks::UNDEFINED   2147483750                       # Cumulative time (in ticks) in various power states (Tick)
system.mem_ctrls94.power_state.pwrStateResidencyTicks::UNDEFINED   2147483750                       # Cumulative time (in ticks) in various power states (Tick)
system.mem_ctrls95.power_state.pwrStateResidencyTicks::UNDEFINED   2147483750                       # Cumulative time (in ticks) in various power states (Tick)
system.mem_ctrls96.power_state.pwrStateResidencyTicks::UNDEFINED   2147483750                       # Cumulative time (in ticks) in various power states (Tick)
system.mem_ctrls97.power_state.pwrStateResidencyTicks::UNDEFINED   2147483750                       # Cumulative time (in ticks) in various power states (Tick)
system.mem_ctrls98.power_state.pwrStateResidencyTicks::UNDEFINED   2147483750                       # Cumulative time (in ticks) in various power states (Tick)
system.mem_ctrls99.power_state.pwrStateResidencyTicks::UNDEFINED   2147483750                       # Cumulative time (in ticks) in various power states (Tick)
system.ruby.m_outstandReqHistSeqr::bucket_size            1                       (Unspecified)
system.ruby.m_outstandReqHistSeqr::max_bucket            9                       (Unspecified)
system.ruby.m_outstandReqHistSeqr::samples    104359169                       (Unspecified)
system.ruby.m_outstandReqHistSeqr::mean             1                       (Unspecified)
system.ruby.m_outstandReqHistSeqr::gmean            1                       (Unspecified)
system.ruby.m_outstandReqHistSeqr        |           0      0.00%      0.00% |   104359169    100.00%    100.00% |           0      0.00%    100.00% |           0      0.00%    100.00% |           0      0.00%    100.00% |           0      0.00%    100.00% |           0      0.00%    100.00% |           0      0.00%    100.00% |           0      0.00%    100.00% |           0      0.00%    100.00% (Unspecified)
system.ruby.m_outstandReqHistSeqr::total    104359169                       (Unspecified)
system.ruby.m_latencyHistSeqr::bucket_size            1                       (Unspecified)
system.ruby.m_latencyHistSeqr::max_bucket            9                       (Unspecified)
system.ruby.m_latencyHistSeqr::samples      104359154                       (Unspecified)
system.ruby.m_latencyHistSeqr::mean                 1                       (Unspecified)
system.ruby.m_latencyHistSeqr::gmean                1                       (Unspecified)
system.ruby.m_latencyHistSeqr            |           0      0.00%      0.00% |   104359154    100.00%    100.00% |           0      0.00%    100.00% |           0      0.00%    100.00% |           0      0.00%    100.00% |           0      0.00%    100.00% |           0      0.00%    100.00% |           0      0.00%    100.00% |           0      0.00%    100.00% |           0      0.00%    100.00% (Unspecified)
system.ruby.m_latencyHistSeqr::total        104359154                       (Unspecified)
system.ruby.m_hitLatencyHistSeqr::bucket_size            1                       (Unspecified)
system.ruby.m_hitLatencyHistSeqr::max_bucket            9                       (Unspecified)
system.ruby.m_hitLatencyHistSeqr::samples    104359154                       (Unspecified)
system.ruby.m_hitLatencyHistSeqr::mean              1                       (Unspecified)
system.ruby.m_hitLatencyHistSeqr::gmean             1                       (Unspecified)
system.ruby.m_hitLatencyHistSeqr         |           0      0.00%      0.00% |   104359154    100.00%    100.00% |           0      0.00%    100.00% |           0      0.00%    100.00% |           0      0.00%    100.00% |           0      0.00%    100.00% |           0      0.00%    100.00% |           0      0.00%    100.00% |           0      0.00%    100.00% |           0      0.00%    100.00% (Unspecified)
system.ruby.m_hitLatencyHistSeqr::total     104359154                       (Unspecified)
system.ruby.Directory_Controller.Receive_Request |      135308      0.39%      0.39% |      135401      0.39%      0.78% |      136052      0.39%      1.17% |      136053      0.39%      1.56% |      136148      0.39%      1.95% |      135806      0.39%      2.34% |      136064      0.39%      2.73% |      135674      0.39%      3.12% |      135973      0.39%      3.51% |      135479      0.39%      3.90% |      136309      0.39%      4.30% |      135708      0.39%      4.69% |      136098      0.39%      5.08% |      136447      0.39%      5.47% |      135901      0.39%      5.86% |      136126      0.39%      6.25% |      135307      0.39%      6.64% |      136126      0.39%      7.03% |      135888      0.39%      7.42% |      135832      0.39%      7.81% |      136035      0.39%      8.20% |      135941      0.39%      8.59% |      135991      0.39%      8.99% |      135881      0.39%      9.38% |      134968      0.39%      9.76% |      135266      0.39%     10.15% |      135518      0.39%     10.54% |      135646      0.39%     10.93% |      136173      0.39%     11.32% |      135629      0.39%     11.71% |      136406      0.39%     12.11% |      135714      0.39%     12.50% |      135865      0.39%     12.89% |      136294      0.39%     13.28% |      136056      0.39%     13.67% |      135615      0.39%     14.06% |      136154      0.39%     14.45% |      135775      0.39%     14.84% |      136063      0.39%     15.23% |      135372      0.39%     15.62% |      136338      0.39%     16.01% |      136563      0.39%     16.41% |      135124      0.39%     16.80% |      135640      0.39%     17.19% |      136175      0.39%     17.58% |      136366      0.39%     17.97% |      136483      0.39%     18.36% |      135892      0.39%     18.75% |      135228      0.39%     19.14% |      136071      0.39%     19.53% |      135809      0.39%     19.92% |      136174      0.39%     20.31% |      135129      0.39%     20.70% |      135463      0.39%     21.09% |      135877      0.39%     21.48% |      136566      0.39%     21.87% |      135939      0.39%     22.27% |      136167      0.39%     22.66% |      135844      0.39%     23.05% |      135210      0.39%     23.44% |      135180      0.39%     23.82% |      136385      0.39%     24.22% |      135940      0.39%     24.61% |      136226      0.39%     25.00% |      135390      0.39%     25.39% |      135987      0.39%     25.78% |      135880      0.39%     26.17% |      135577      0.39%     26.56% |      136245      0.39%     26.95% |      136041      0.39%     27.34% |      135979      0.39%     27.73% |      136484      0.39%     28.13% |      136641      0.39%     28.52% |      135940      0.39%     28.91% |      135827      0.39%     29.30% |      135974      0.39%     29.69% |      136126      0.39%     30.08% |      136110      0.39%     30.47% |      135515      0.39%     30.86% |      135498      0.39%     31.25% |      135793      0.39%     31.64% |      135710      0.39%     32.03% |      135821      0.39%     32.42% |      136379      0.39%     32.82% |      135630      0.39%     33.21% |      135832      0.39%     33.60% |      135882      0.39%     33.99% |      135609      0.39%     34.38% |      136417      0.39%     34.77% |      135718      0.39%     35.16% |      135802      0.39%     35.55% |      135884      0.39%     35.94% |      135541      0.39%     36.33% |      135588      0.39%     36.72% |      136013      0.39%     37.11% |      135947      0.39%     37.50% |      135999      0.39%     37.89% |      135224      0.39%     38.28% |      135545      0.39%     38.67% |      135577      0.39%     39.06% |      135562      0.39%     39.45% |      135681      0.39%     39.84% |      135598      0.39%     40.23% |      135331      0.39%     40.62% |      135730      0.39%     41.01% |      135985      0.39%     41.40% |      136472      0.39%     41.79% |      135938      0.39%     42.18% |      135648      0.39%     42.57% |      135525      0.39%     42.96% |      135263      0.39%     43.35% |      135796      0.39%     43.74% |      136133      0.39%     44.13% |      136052      0.39%     44.52% |      135991      0.39%     44.92% |      136249      0.39%     45.31% |      135549      0.39%     45.70% |      135832      0.39%     46.09% |      135607      0.39%     46.48% |      135521      0.39%     46.87% |      136806      0.39%     47.26% |      136526      0.39%     47.65% |      136924      0.39%     48.05% |      135006      0.39%     48.43% |      135604      0.39%     48.82% |      135054      0.39%     49.21% |      135765      0.39%     49.60% |      135984      0.39%     49.99% |      136065      0.39%     50.39% |      136183      0.39%     50.78% |      135827      0.39%     51.17% |      135696      0.39%     51.56% |      135915      0.39%     51.95% |      136141      0.39%     52.34% |      136104      0.39%     52.73% |      135525      0.39%     53.12% |      136347      0.39%     53.51% |      136072      0.39%     53.90% |      136030      0.39%     54.29% |      135794      0.39%     54.69% |      135876      0.39%     55.08% |      136612      0.39%     55.47% |      136398      0.39%     55.86% |      135590      0.39%     56.25% |      135970      0.39%     56.64% |      136023      0.39%     57.03% |      135859      0.39%     57.42% |      135649      0.39%     57.81% |      135894      0.39%     58.20% |      136261      0.39%     58.60% |      136008      0.39%     58.99% |      135949      0.39%     59.38% |      135556      0.39%     59.77% |      136195      0.39%     60.16% |      135725      0.39%     60.55% |      134564      0.39%     60.94% |      135926      0.39%     61.33% |      135430      0.39%     61.72% |      136270      0.39%     62.11% |      136231      0.39%     62.50% |      135889      0.39%     62.89% |      135485      0.39%     63.28% |      135601      0.39%     63.67% |      136420      0.39%     64.06% |      135731      0.39%     64.45% |      136026      0.39%     64.84% |      135560      0.39%     65.23% |      135363      0.39%     65.62% |      136011      0.39%     66.01% |      136505      0.39%     66.40% |      135993      0.39%     66.80% |      135806      0.39%     67.19% |      136642      0.39%     67.58% |      136173      0.39%     67.97% |      135936      0.39%     68.36% |      135809      0.39%     68.75% |      136034      0.39%     69.14% |      136035      0.39%     69.53% |      135832      0.39%     69.92% |      136061      0.39%     70.32% |      135934      0.39%     70.71% |      135603      0.39%     71.10% |      135851      0.39%     71.49% |      136175      0.39%     71.88% |      136187      0.39%     72.27% |      136322      0.39%     72.66% |      135418      0.39%     73.05% |      135098      0.39%     73.44% |      135426      0.39%     73.83% |      136268      0.39%     74.22% |      135681      0.39%     74.61% |      136035      0.39%     75.00% |      135764      0.39%     75.39% |      135383      0.39%     75.78% |      136332      0.39%     76.17% |      135694      0.39%     76.56% |      136319      0.39%     76.95% |      136615      0.39%     77.35% |      135350      0.39%     77.74% |      136288      0.39%     78.13% |      136074      0.39%     78.52% |      135367      0.39%     78.91% |      136765      0.39%     79.30% |      136020      0.39%     79.69% |      135986      0.39%     80.08% |      135716      0.39%     80.47% |      135704      0.39%     80.86% |      135997      0.39%     81.26% |      136182      0.39%     81.65% |      135336      0.39%     82.04% |      135986      0.39%     82.43% |      136330      0.39%     82.82% |      135676      0.39%     83.21% |      135540      0.39%     83.60% |      135880      0.39%     83.99% |      136343      0.39%     84.38% |      136505      0.39%     84.77% |      135439      0.39%     85.16% |      135282      0.39%     85.55% |      135559      0.39%     85.94% |      135526      0.39%     86.33% |      135370      0.39%     86.72% |      135868      0.39%     87.11% |      135974      0.39%     87.50% |      135231      0.39%     87.89% |      135643      0.39%     88.28% |      136589      0.39%     88.67% |      136011      0.39%     89.06% |      135262      0.39%     89.45% |      135126      0.39%     89.84% |      135625      0.39%     90.23% |      136335      0.39%     90.62% |      135942      0.39%     91.01% |      135830      0.39%     91.40% |      136151      0.39%     91.80% |      135567      0.39%     92.19% |      135885      0.39%     92.58% |      135593      0.39%     92.97% |      135811      0.39%     93.36% |      135685      0.39%     93.75% |      136486      0.39%     94.14% |      135694      0.39%     94.53% |      135489      0.39%     94.92% |      136073      0.39%     95.31% |      136039      0.39%     95.70% |      135839      0.39%     96.09% |      135750      0.39%     96.48% |      135949      0.39%     96.87% |      136028      0.39%     97.26% |      135733      0.39%     97.65% |      135830      0.39%     98.04% |      136333      0.39%     98.44% |      136088      0.39%     98.83% |      136114      0.39%     99.22% |      136409      0.39%     99.61% |      135288      0.39%    100.00% (Unspecified)
system.ruby.Directory_Controller.Receive_Request::total     34784301                       (Unspecified)
system.ruby.Directory_Controller.Receive_Forward |      135623      0.39%      0.39% |      136664      0.39%      0.78% |      136030      0.39%      1.17% |      136375      0.39%      1.57% |      135754      0.39%      1.96% |      135389      0.39%      2.35% |      135945      0.39%      2.74% |      136020      0.39%      3.13% |      135984      0.39%      3.52% |      135510      0.39%      3.91% |      136231      0.39%      4.30% |      136533      0.39%      4.69% |      136104      0.39%      5.08% |      136176      0.39%      5.47% |      135877      0.39%      5.86% |      135699      0.39%      6.25% |      135691      0.39%      6.64% |      135899      0.39%      7.04% |      136055      0.39%      7.43% |      135750      0.39%      7.82% |      135438      0.39%      8.21% |      135593      0.39%      8.60% |      135555      0.39%      8.99% |      135773      0.39%      9.38% |      135268      0.39%      9.76% |      135336      0.39%     10.15% |      135704      0.39%     10.54% |      136478      0.39%     10.94% |      135749      0.39%     11.33% |      136174      0.39%     11.72% |      135952      0.39%     12.11% |      135530      0.39%     12.50% |      136006      0.39%     12.89% |      136112      0.39%     13.28% |      136466      0.39%     13.67% |      136137      0.39%     14.06% |      136117      0.39%     14.46% |      135904      0.39%     14.85% |      135889      0.39%     15.24% |      135501      0.39%     15.63% |      136230      0.39%     16.02% |      135949      0.39%     16.41% |      136194      0.39%     16.80% |      136318      0.39%     17.19% |      136078      0.39%     17.58% |      135555      0.39%     17.97% |      135838      0.39%     18.36% |      135566      0.39%     18.75% |      135429      0.39%     19.14% |      135732      0.39%     19.53% |      135581      0.39%     19.92% |      135333      0.39%     20.31% |      136336      0.39%     20.70% |      136038      0.39%     21.09% |      136577      0.39%     21.49% |      136397      0.39%     21.88% |      136274      0.39%     22.27% |      135133      0.39%     22.66% |      135618      0.39%     23.05% |      136113      0.39%     23.44% |      135956      0.39%     23.83% |      136153      0.39%     24.22% |      135999      0.39%     24.61% |      135686      0.39%     25.00% |      136054      0.39%     25.39% |      136367      0.39%     25.79% |      135897      0.39%     26.18% |      136241      0.39%     26.57% |      135583      0.39%     26.96% |      136354      0.39%     27.35% |      135983      0.39%     27.74% |      135172      0.39%     28.13% |      135632      0.39%     28.52% |      135523      0.39%     28.91% |      135607      0.39%     29.30% |      136009      0.39%     29.69% |      135288      0.39%     30.08% |      136471      0.39%     30.47% |      135992      0.39%     30.86% |      136037      0.39%     31.25% |      136430      0.39%     31.65% |      135904      0.39%     32.04% |      136124      0.39%     32.43% |      135693      0.39%     32.82% |      136299      0.39%     33.21% |      136211      0.39%     33.60% |      135920      0.39%     33.99% |      135508      0.39%     34.38% |      135463      0.39%     34.77% |      136039      0.39%     35.16% |      135129      0.39%     35.55% |      135444      0.39%     35.94% |      135675      0.39%     36.33% |      136329      0.39%     36.72% |      135426      0.39%     37.11% |      136226      0.39%     37.50% |      136205      0.39%     37.89% |      135961      0.39%     38.28% |      135410      0.39%     38.67% |      136090      0.39%     39.07% |      136072      0.39%     39.46% |      135710      0.39%     39.85% |      135746      0.39%     40.24% |      135976      0.39%     40.63% |      136100      0.39%     41.02% |      135797      0.39%     41.41% |      135612      0.39%     41.80% |      135303      0.39%     42.19% |      135682      0.39%     42.58% |      135727      0.39%     42.97% |      136184      0.39%     43.36% |      135079      0.39%     43.75% |      135683      0.39%     44.14% |      136068      0.39%     44.53% |      136017      0.39%     44.92% |      135403      0.39%     45.31% |      136511      0.39%     45.70% |      135595      0.39%     46.09% |      135403      0.39%     46.48% |      135106      0.39%     46.87% |      135879      0.39%     47.26% |      136165      0.39%     47.65% |      136033      0.39%     48.04% |      135560      0.39%     48.43% |      135958      0.39%     48.82% |      135934      0.39%     49.21% |      136177      0.39%     49.61% |      135899      0.39%     50.00% |      135700      0.39%     50.39% |      136062      0.39%     50.78% |      135656      0.39%     51.17% |      136055      0.39%     51.56% |      135617      0.39%     51.95% |      135841      0.39%     52.34% |      136302      0.39%     52.73% |      135657      0.39%     53.12% |      135692      0.39%     53.51% |      135539      0.39%     53.90% |      136555      0.39%     54.29% |      136334      0.39%     54.68% |      136092      0.39%     55.08% |      135618      0.39%     55.47% |      135116      0.39%     55.85% |      135045      0.39%     56.24% |      135824      0.39%     56.63% |      135599      0.39%     57.02% |      135681      0.39%     57.41% |      135732      0.39%     57.80% |      136207      0.39%     58.19% |      136115      0.39%     58.59% |      136691      0.39%     58.98% |      136070      0.39%     59.37% |      135856      0.39%     59.76% |      136287      0.39%     60.15% |      135647      0.39%     60.54% |      136277      0.39%     60.93% |      135932      0.39%     61.32% |      136370      0.39%     61.72% |      136008      0.39%     62.11% |      135153      0.39%     62.50% |      136456      0.39%     62.89% |      136359      0.39%     63.28% |      136374      0.39%     63.67% |      135825      0.39%     64.06% |      135924      0.39%     64.45% |      135878      0.39%     64.84% |      136462      0.39%     65.24% |      135514      0.39%     65.63% |      135941      0.39%     66.02% |      136180      0.39%     66.41% |      135886      0.39%     66.80% |      136189      0.39%     67.19% |      136250      0.39%     67.58% |      135707      0.39%     67.97% |      135302      0.39%     68.36% |      135713      0.39%     68.75% |      135687      0.39%     69.14% |      135395      0.39%     69.53% |      135966      0.39%     69.92% |      135735      0.39%     70.31% |      136217      0.39%     70.70% |      136155      0.39%     71.09% |      135793      0.39%     71.48% |      136383      0.39%     71.88% |      135731      0.39%     72.27% |      135967      0.39%     72.66% |      136019      0.39%     73.05% |      135275      0.39%     73.44% |      135612      0.39%     73.83% |      135672      0.39%     74.22% |      135217      0.39%     74.61% |      135969      0.39%     75.00% |      136185      0.39%     75.39% |      135010      0.39%     75.78% |      136038      0.39%     76.17% |      136021      0.39%     76.56% |      135852      0.39%     76.95% |      135916      0.39%     77.34% |      136132      0.39%     77.73% |      135900      0.39%     78.12% |      135685      0.39%     78.51% |      135621      0.39%     78.90% |      135659      0.39%     79.29% |      136362      0.39%     79.68% |      136138      0.39%     80.07% |      135861      0.39%     80.47% |      136296      0.39%     80.86% |      136360      0.39%     81.25% |      135880      0.39%     81.64% |      135877      0.39%     82.03% |      135732      0.39%     82.42% |      135492      0.39%     82.81% |      135890      0.39%     83.20% |      135643      0.39%     83.59% |      136000      0.39%     83.98% |      135814      0.39%     84.37% |      135663      0.39%     84.76% |      135213      0.39%     85.15% |      136008      0.39%     85.54% |      136036      0.39%     85.93% |      135829      0.39%     86.32% |      136039      0.39%     86.71% |      135638      0.39%     87.10% |      135561      0.39%     87.49% |      135926      0.39%     87.88% |      135794      0.39%     88.27% |      136050      0.39%     88.67% |      136055      0.39%     89.06% |      135554      0.39%     89.45% |      135749      0.39%     89.84% |      135845      0.39%     90.23% |      135064      0.39%     90.62% |      136234      0.39%     91.01% |      136274      0.39%     91.40% |      136302      0.39%     91.79% |      136177      0.39%     92.18% |      135837      0.39%     92.57% |      135567      0.39%     92.96% |      136050      0.39%     93.35% |      135706      0.39%     93.74% |      135927      0.39%     94.13% |      136261      0.39%     94.53% |      136036      0.39%     94.92% |      135976      0.39%     95.31% |      135897      0.39%     95.70% |      136833      0.39%     96.09% |      136555      0.39%     96.48% |      136079      0.39%     96.88% |      136461      0.39%     97.27% |      136614      0.39%     97.66% |      135431      0.39%     98.05% |      135893      0.39%     98.44% |      135872      0.39%     98.83% |      136228      0.39%     99.22% |      135447      0.39%     99.61% |      135017      0.39%    100.00% (Unspecified)
system.ruby.Directory_Controller.Receive_Forward::total     34787294                       (Unspecified)
[...]
system.ruby.network.sankey.vcvn35.vcvn5             0                       (Unspecified)
system.ruby.network.sankey.vcvn35.vcvn6             0                       (Unspecified)
system.ruby.network.sankey.vcvn35.vcvn7             0                       (Unspecified)
system.ruby.network.sankey.vcvn35.vcvn8             0                       (Unspecified)
system.ruby.network.sankey.vcvn35.vcvn9             0                       (Unspecified)
system.ruby.network.sankey.vcvn4.vcvn0        2815938                       (Unspecified)
system.ruby.network.sankey.vcvn4.vcvn1         261030                       (Unspecified)
system.ruby.network.sankey.vcvn4.vcvn10          1840                       (Unspecified)
system.ruby.network.sankey.vcvn4.vcvn11          1336                       (Unspecified)
system.ruby.network.sankey.vcvn4.vcvn12             0                       (Unspecified)
system.ruby.network.sankey.vcvn4.vcvn13             0                       (Unspecified)
system.ruby.network.sankey.vcvn4.vcvn14             0                       (Unspecified)
system.ruby.network.sankey.vcvn4.vcvn15             0                       (Unspecified)
system.ruby.network.sankey.vcvn4.vcvn16             0                       (Unspecified)
system.ruby.network.sankey.vcvn4.vcvn17             0                       (Unspecified)
system.ruby.network.sankey.vcvn4.vcvn18             0                       (Unspecified)
system.ruby.network.sankey.vcvn4.vcvn19             0                       (Unspecified)
system.ruby.network.sankey.vcvn4.vcvn2          11814                       (Unspecified)
system.ruby.network.sankey.vcvn4.vcvn20             0                       (Unspecified)
system.ruby.network.sankey.vcvn4.vcvn21             0                       (Unspecified)
system.ruby.network.sankey.vcvn4.vcvn22             0                       (Unspecified)
system.ruby.network.sankey.vcvn4.vcvn23             0                       (Unspecified)
system.ruby.network.sankey.vcvn4.vcvn24             0                       (Unspecified)
system.ruby.network.sankey.vcvn4.vcvn25             0                       (Unspecified)
system.ruby.network.sankey.vcvn4.vcvn26             0                       (Unspecified)
system.ruby.network.sankey.vcvn4.vcvn27             0                       (Unspecified)
system.ruby.network.sankey.vcvn4.vcvn28             0                       (Unspecified)
system.ruby.network.sankey.vcvn4.vcvn29             0                       (Unspecified)
system.ruby.network.sankey.vcvn4.vcvn3            322                       (Unspecified)
system.ruby.network.sankey.vcvn4.vcvn30             0                       (Unspecified)
system.ruby.network.sankey.vcvn4.vcvn31             0                       (Unspecified)
system.ruby.network.sankey.vcvn4.vcvn32             0                       (Unspecified)
system.ruby.network.sankey.vcvn4.vcvn33             0                       (Unspecified)
system.ruby.network.sankey.vcvn4.vcvn34             0                       (Unspecified)
system.ruby.network.sankey.vcvn4.vcvn35             0                       (Unspecified)
system.ruby.network.sankey.vcvn4.vcvn4              9                       (Unspecified)
system.ruby.network.sankey.vcvn4.vcvn5              0                       (Unspecified)
system.ruby.network.sankey.vcvn4.vcvn6              0                       (Unspecified)
system.ruby.network.sankey.vcvn4.vcvn7              0                       (Unspecified)
system.ruby.network.sankey.vcvn4.vcvn8              0                       (Unspecified)
system.ruby.network.sankey.vcvn4.vcvn9              0                       (Unspecified)
system.ruby.network.sankey.vcvn5.vcvn0        2814962                       (Unspecified)
system.ruby.network.sankey.vcvn5.vcvn1         261844                       (Unspecified)
system.ruby.network.sankey.vcvn5.vcvn10          1835                       (Unspecified)
system.ruby.network.sankey.vcvn5.vcvn11          1374                       (Unspecified)
system.ruby.network.sankey.vcvn5.vcvn12             0                       (Unspecified)
system.ruby.network.sankey.vcvn5.vcvn13             0                       (Unspecified)
system.ruby.network.sankey.vcvn5.vcvn14             0                       (Unspecified)
system.ruby.network.sankey.vcvn5.vcvn15             0                       (Unspecified)
system.ruby.network.sankey.vcvn5.vcvn16             0                       (Unspecified)
system.ruby.network.sankey.vcvn5.vcvn17             0                       (Unspecified)
system.ruby.network.sankey.vcvn5.vcvn18             0                       (Unspecified)
system.ruby.network.sankey.vcvn5.vcvn19             0                       (Unspecified)
system.ruby.network.sankey.vcvn5.vcvn2          11916                       (Unspecified)
system.ruby.network.sankey.vcvn5.vcvn20             0                       (Unspecified)
system.ruby.network.sankey.vcvn5.vcvn21             0                       (Unspecified)
system.ruby.network.sankey.vcvn5.vcvn22             0                       (Unspecified)
system.ruby.network.sankey.vcvn5.vcvn23             0                       (Unspecified)
system.ruby.network.sankey.vcvn5.vcvn24             0                       (Unspecified)
system.ruby.network.sankey.vcvn5.vcvn25             0                       (Unspecified)
system.ruby.network.sankey.vcvn5.vcvn26             0                       (Unspecified)
system.ruby.network.sankey.vcvn5.vcvn27             0                       (Unspecified)
system.ruby.network.sankey.vcvn5.vcvn28             0                       (Unspecified)
system.ruby.network.sankey.vcvn5.vcvn29             0                       (Unspecified)
system.ruby.network.sankey.vcvn5.vcvn3            348                       (Unspecified)
system.ruby.network.sankey.vcvn5.vcvn30             0                       (Unspecified)
system.ruby.network.sankey.vcvn5.vcvn31             0                       (Unspecified)
system.ruby.network.sankey.vcvn5.vcvn32             0                       (Unspecified)
system.ruby.network.sankey.vcvn5.vcvn33             0                       (Unspecified)
system.ruby.network.sankey.vcvn5.vcvn34             0                       (Unspecified)
system.ruby.network.sankey.vcvn5.vcvn35             0                       (Unspecified)
system.ruby.network.sankey.vcvn5.vcvn4              5                       (Unspecified)
system.ruby.network.sankey.vcvn5.vcvn5              0                       (Unspecified)
system.ruby.network.sankey.vcvn5.vcvn6              0                       (Unspecified)
system.ruby.network.sankey.vcvn5.vcvn7              0                       (Unspecified)
system.ruby.network.sankey.vcvn5.vcvn8              0                       (Unspecified)
system.ruby.network.sankey.vcvn5.vcvn9              0                       (Unspecified)
system.ruby.network.sankey.vcvn6.vcvn0        2814809                       (Unspecified)
system.ruby.network.sankey.vcvn6.vcvn1         262153                       (Unspecified)
system.ruby.network.sankey.vcvn6.vcvn10          1886                       (Unspecified)
system.ruby.network.sankey.vcvn6.vcvn11          1435                       (Unspecified)
system.ruby.network.sankey.vcvn6.vcvn12             0                       (Unspecified)
system.ruby.network.sankey.vcvn6.vcvn13             0                       (Unspecified)
system.ruby.network.sankey.vcvn6.vcvn14             0                       (Unspecified)
system.ruby.network.sankey.vcvn6.vcvn15             0                       (Unspecified)
system.ruby.network.sankey.vcvn6.vcvn16             0                       (Unspecified)
system.ruby.network.sankey.vcvn6.vcvn17             0                       (Unspecified)
system.ruby.network.sankey.vcvn6.vcvn18             0                       (Unspecified)
system.ruby.network.sankey.vcvn6.vcvn19             0                       (Unspecified)
system.ruby.network.sankey.vcvn6.vcvn2          11653                       (Unspecified)
system.ruby.network.sankey.vcvn6.vcvn20             0                       (Unspecified)
system.ruby.network.sankey.vcvn6.vcvn21             0                       (Unspecified)
system.ruby.network.sankey.vcvn6.vcvn22             0                       (Unspecified)
system.ruby.network.sankey.vcvn6.vcvn23             0                       (Unspecified)
system.ruby.network.sankey.vcvn6.vcvn24             0                       (Unspecified)
system.ruby.network.sankey.vcvn6.vcvn25             0                       (Unspecified)
system.ruby.network.sankey.vcvn6.vcvn26             0                       (Unspecified)
system.ruby.network.sankey.vcvn6.vcvn27             0                       (Unspecified)
system.ruby.network.sankey.vcvn6.vcvn28             0                       (Unspecified)
system.ruby.network.sankey.vcvn6.vcvn29             0                       (Unspecified)
system.ruby.network.sankey.vcvn6.vcvn3            343                       (Unspecified)
system.ruby.network.sankey.vcvn6.vcvn30             0                       (Unspecified)
system.ruby.network.sankey.vcvn6.vcvn31             0                       (Unspecified)
system.ruby.network.sankey.vcvn6.vcvn32             0                       (Unspecified)
system.ruby.network.sankey.vcvn6.vcvn33             0                       (Unspecified)
system.ruby.network.sankey.vcvn6.vcvn34             0                       (Unspecified)
system.ruby.network.sankey.vcvn6.vcvn35             0                       (Unspecified)
system.ruby.network.sankey.vcvn6.vcvn4              2                       (Unspecified)
system.ruby.network.sankey.vcvn6.vcvn5              0                       (Unspecified)
system.ruby.network.sankey.vcvn6.vcvn6              0                       (Unspecified)
system.ruby.network.sankey.vcvn6.vcvn7              0                       (Unspecified)
system.ruby.network.sankey.vcvn6.vcvn8              0                       (Unspecified)
system.ruby.network.sankey.vcvn6.vcvn9              0                       (Unspecified)
system.ruby.network.sankey.vcvn7.vcvn0        2815881                       (Unspecified)
system.ruby.network.sankey.vcvn7.vcvn1         261090                       (Unspecified)
system.ruby.network.sankey.vcvn7.vcvn10          1858                       (Unspecified)
system.ruby.network.sankey.vcvn7.vcvn11          1366                       (Unspecified)
system.ruby.network.sankey.vcvn7.vcvn12             0                       (Unspecified)
system.ruby.network.sankey.vcvn7.vcvn13             0                       (Unspecified)
system.ruby.network.sankey.vcvn7.vcvn14             0                       (Unspecified)
system.ruby.network.sankey.vcvn7.vcvn15             0                       (Unspecified)
system.ruby.network.sankey.vcvn7.vcvn16             0                       (Unspecified)
system.ruby.network.sankey.vcvn7.vcvn17             0                       (Unspecified)
system.ruby.network.sankey.vcvn7.vcvn18             0                       (Unspecified)
system.ruby.network.sankey.vcvn7.vcvn19             0                       (Unspecified)
system.ruby.network.sankey.vcvn7.vcvn2          11767                       (Unspecified)
system.ruby.network.sankey.vcvn7.vcvn20             0                       (Unspecified)
system.ruby.network.sankey.vcvn7.vcvn21             0                       (Unspecified)
system.ruby.network.sankey.vcvn7.vcvn22             0                       (Unspecified)
system.ruby.network.sankey.vcvn7.vcvn23             0                       (Unspecified)
system.ruby.network.sankey.vcvn7.vcvn24             0                       (Unspecified)
system.ruby.network.sankey.vcvn7.vcvn25             0                       (Unspecified)
system.ruby.network.sankey.vcvn7.vcvn26             0                       (Unspecified)
system.ruby.network.sankey.vcvn7.vcvn27             0                       (Unspecified)
system.ruby.network.sankey.vcvn7.vcvn28             0                       (Unspecified)
system.ruby.network.sankey.vcvn7.vcvn29             0                       (Unspecified)
system.ruby.network.sankey.vcvn7.vcvn3            304                       (Unspecified)
system.ruby.network.sankey.vcvn7.vcvn30             0                       (Unspecified)
system.ruby.network.sankey.vcvn7.vcvn31             0                       (Unspecified)
system.ruby.network.sankey.vcvn7.vcvn32             0                       (Unspecified)
system.ruby.network.sankey.vcvn7.vcvn33             0                       (Unspecified)
system.ruby.network.sankey.vcvn7.vcvn34             0                       (Unspecified)
system.ruby.network.sankey.vcvn7.vcvn35             0                       (Unspecified)
system.ruby.network.sankey.vcvn7.vcvn4              4                       (Unspecified)
system.ruby.network.sankey.vcvn7.vcvn5              0                       (Unspecified)
system.ruby.network.sankey.vcvn7.vcvn6              0                       (Unspecified)
system.ruby.network.sankey.vcvn7.vcvn7              0                       (Unspecified)
system.ruby.network.sankey.vcvn7.vcvn8              0                       (Unspecified)
system.ruby.network.sankey.vcvn7.vcvn9              0                       (Unspecified)
system.ruby.network.sankey.vcvn8.vcvn0        2814224                       (Unspecified)
system.ruby.network.sankey.vcvn8.vcvn1         262482                       (Unspecified)
system.ruby.network.sankey.vcvn8.vcvn10          1857                       (Unspecified)
system.ruby.network.sankey.vcvn8.vcvn11          1421                       (Unspecified)
system.ruby.network.sankey.vcvn8.vcvn12             0                       (Unspecified)
system.ruby.network.sankey.vcvn8.vcvn13             0                       (Unspecified)
system.ruby.network.sankey.vcvn8.vcvn14             0                       (Unspecified)
system.ruby.network.sankey.vcvn8.vcvn15             0                       (Unspecified)
system.ruby.network.sankey.vcvn8.vcvn16             0                       (Unspecified)
system.ruby.network.sankey.vcvn8.vcvn17             0                       (Unspecified)
system.ruby.network.sankey.vcvn8.vcvn18             0                       (Unspecified)
system.ruby.network.sankey.vcvn8.vcvn19             0                       (Unspecified)
system.ruby.network.sankey.vcvn8.vcvn2          11973                       (Unspecified)
system.ruby.network.sankey.vcvn8.vcvn20             0                       (Unspecified)
system.ruby.network.sankey.vcvn8.vcvn21             0                       (Unspecified)
system.ruby.network.sankey.vcvn8.vcvn22             0                       (Unspecified)
system.ruby.network.sankey.vcvn8.vcvn23             0                       (Unspecified)
system.ruby.network.sankey.vcvn8.vcvn24             0                       (Unspecified)
system.ruby.network.sankey.vcvn8.vcvn25             0                       (Unspecified)
system.ruby.network.sankey.vcvn8.vcvn26             0                       (Unspecified)
system.ruby.network.sankey.vcvn8.vcvn27             0                       (Unspecified)
system.ruby.network.sankey.vcvn8.vcvn28             0                       (Unspecified)
system.ruby.network.sankey.vcvn8.vcvn29             0                       (Unspecified)
system.ruby.network.sankey.vcvn8.vcvn3            303                       (Unspecified)
system.ruby.network.sankey.vcvn8.vcvn30             0                       (Unspecified)
system.ruby.network.sankey.vcvn8.vcvn31             0                       (Unspecified)
system.ruby.network.sankey.vcvn8.vcvn32             0                       (Unspecified)
system.ruby.network.sankey.vcvn8.vcvn33             0                       (Unspecified)
system.ruby.network.sankey.vcvn8.vcvn34             0                       (Unspecified)
system.ruby.network.sankey.vcvn8.vcvn35             0                       (Unspecified)
system.ruby.network.sankey.vcvn8.vcvn4              6                       (Unspecified)
system.ruby.network.sankey.vcvn8.vcvn5              0                       (Unspecified)
system.ruby.network.sankey.vcvn8.vcvn6              0                       (Unspecified)
system.ruby.network.sankey.vcvn8.vcvn7              0                       (Unspecified)
system.ruby.network.sankey.vcvn8.vcvn8              0                       (Unspecified)
system.ruby.network.sankey.vcvn8.vcvn9              0                       (Unspecified)
system.ruby.network.sankey.vcvn9.vcvn0        2816116                       (Unspecified)
system.ruby.network.sankey.vcvn9.vcvn1         260593                       (Unspecified)
system.ruby.network.sankey.vcvn9.vcvn10          1897                       (Unspecified)
system.ruby.network.sankey.vcvn9.vcvn11          1436                       (Unspecified)
system.ruby.network.sankey.vcvn9.vcvn12             0                       (Unspecified)
system.ruby.network.sankey.vcvn9.vcvn13             0                       (Unspecified)
system.ruby.network.sankey.vcvn9.vcvn14             0                       (Unspecified)
system.ruby.network.sankey.vcvn9.vcvn15             0                       (Unspecified)
system.ruby.network.sankey.vcvn9.vcvn16             0                       (Unspecified)
system.ruby.network.sankey.vcvn9.vcvn17             0                       (Unspecified)
system.ruby.network.sankey.vcvn9.vcvn18             0                       (Unspecified)
system.ruby.network.sankey.vcvn9.vcvn19             0                       (Unspecified)
system.ruby.network.sankey.vcvn9.vcvn2          11911                       (Unspecified)
system.ruby.network.sankey.vcvn9.vcvn20             0                       (Unspecified)
system.ruby.network.sankey.vcvn9.vcvn21             0                       (Unspecified)
system.ruby.network.sankey.vcvn9.vcvn22             0                       (Unspecified)
system.ruby.network.sankey.vcvn9.vcvn23             0                       (Unspecified)
system.ruby.network.sankey.vcvn9.vcvn24             0                       (Unspecified)
system.ruby.network.sankey.vcvn9.vcvn25             0                       (Unspecified)
system.ruby.network.sankey.vcvn9.vcvn26             0                       (Unspecified)
system.ruby.network.sankey.vcvn9.vcvn27             0                       (Unspecified)
system.ruby.network.sankey.vcvn9.vcvn28             0                       (Unspecified)
system.ruby.network.sankey.vcvn9.vcvn29             0                       (Unspecified)
system.ruby.network.sankey.vcvn9.vcvn3            300                       (Unspecified)
system.ruby.network.sankey.vcvn9.vcvn30             0                       (Unspecified)
system.ruby.network.sankey.vcvn9.vcvn31             0                       (Unspecified)
system.ruby.network.sankey.vcvn9.vcvn32             0                       (Unspecified)
system.ruby.network.sankey.vcvn9.vcvn33             0                       (Unspecified)
system.ruby.network.sankey.vcvn9.vcvn34             0                       (Unspecified)
system.ruby.network.sankey.vcvn9.vcvn35             0                       (Unspecified)
system.ruby.network.sankey.vcvn9.vcvn4              7                       (Unspecified)
system.ruby.network.sankey.vcvn9.vcvn5              0                       (Unspecified)
system.ruby.network.sankey.vcvn9.vcvn6              0                       (Unspecified)
system.ruby.network.sankey.vcvn9.vcvn7              0                       (Unspecified)
system.ruby.network.sankey.vcvn9.vcvn8              0                       (Unspecified)
system.ruby.network.sankey.vcvn9.vcvn9              0                       (Unspecified)

---------- End Simulation Statistics   ----------
