gem5 Simulator System.  https://www.gem5.org
gem5 is copyrighted software; use the --copyright option for details.

gem5 version 22.0.0.2
gem5 compiled Jun 17 2023 14:31:12
gem5 started Nov 18 2023 15:50:05
gem5 executing on mnemosyne24.ecn.purdue.edu, pid 14551
command line: ./build/Garnet_standalone/gem5.fast -d ./synth_outputs/simple/2b/mixed/nndbt_none_2_6_40cpus_4xdirs_4.0GHz/mem/ns_m_scop/0_15/ configs/auto_top/auto_top_synth.py --topology EscapeVirtualNetworks --noi_routers 20 --sim-cycles 2147483647 --injectionrate 0.15 --noc_clk 4.0GHz --sys-clock 4.0GHz --ruby-clock 4.0GHz --noi_clk 3.0GHz --router_map_file configs/topologies/paper_solutions/ns_m_scop.map --flat_vn_map_file configs/topologies/vn_maps_ndbt/ns_m_scop_nndbt_none_2vns.vn --flat_nr_map_file configs/topologies/nr_list_ndbt/ns_m_scop_nndbt.nrl --ruby --mem_or_coh mem --mem-size 320000000 --num-dirs 64 --num-cpus 40 --network garnet --mem-type SimpleMemory --routing-algorithm 2 --use_escape_vns --synth_traffic --vcs-per-vnet 6 --evn_deadlock_partition 4 --evn_n_deadlock_free 1 --evn_min_n_deadlock_free 2

info: Standard input is not a terminal, disabling listeners.
ingesting configs/topologies/vn_maps_ndbt/ns_m_scop_nndbt_none_2vns.vn
cpus(40)=[<m5.objects.GarnetSyntheticTraffic.GarnetSyntheticTraffic object at 0x7f5158c22048>, <m5.objects.GarnetSyntheticTraffic.GarnetSyntheticTraffic object at 0x7f5158c22e10>, <m5.objects.GarnetSyntheticTraffic.GarnetSyntheticTraffic object at 0x7f515879e128>, <m5.objects.GarnetSyntheticTraffic.GarnetSyntheticTraffic object at 0x7f515879e400>, <m5.objects.GarnetSyntheticTraffic.GarnetSyntheticTraffic object at 0x7f515879e6d8>, <m5.objects.GarnetSyntheticTraffic.GarnetSyntheticTraffic object at 0x7f515879e9b0>, <m5.objects.GarnetSyntheticTraffic.GarnetSyntheticTraffic object at 0x7f515879ec88>, <m5.objects.GarnetSyntheticTraffic.GarnetSyntheticTraffic object at 0x7f515879ef60>, <m5.objects.GarnetSyntheticTraffic.GarnetSyntheticTraffic object at 0x7f51587a7278>, <m5.objects.GarnetSyntheticTraffic.GarnetSyntheticTraffic object at 0x7f51587a7550>, <m5.objects.GarnetSyntheticTraffic.GarnetSyntheticTraffic object at 0x7f51587a7828>, <m5.objects.GarnetSyntheticTraffic.GarnetSyntheticTraffic object at 0x7f51587a7b00>, <m5.objects.GarnetSyntheticTraffic.GarnetSyntheticTraffic object at 0x7f5158c22860>, <m5.objects.GarnetSyntheticTraffic.GarnetSyntheticTraffic object at 0x7f5158c11eb8>, <m5.objects.GarnetSyntheticTraffic.GarnetSyntheticTraffic object at 0x7f5158c1b6d8>, <m5.objects.GarnetSyntheticTraffic.GarnetSyntheticTraffic object at 0x7f5158c1bd30>, <m5.objects.GarnetSyntheticTraffic.GarnetSyntheticTraffic object at 0x7f51587a7d68>, <m5.objects.GarnetSyntheticTraffic.GarnetSyntheticTraffic object at 0x7f51587b3080>, <m5.objects.GarnetSyntheticTraffic.GarnetSyntheticTraffic object at 0x7f51587b3358>, <m5.objects.GarnetSyntheticTraffic.GarnetSyntheticTraffic object at 0x7f51587b3630>, <m5.objects.GarnetSyntheticTraffic.GarnetSyntheticTraffic object at 0x7f51587b3908>, <m5.objects.GarnetSyntheticTraffic.GarnetSyntheticTraffic object at 0x7f51587b3be0>, <m5.objects.GarnetSyntheticTraffic.GarnetSyntheticTraffic object at 0x7f51587b3eb8>, <m5.objects.GarnetSyntheticTraffic.GarnetSyntheticTraffic object at 0x7f51587ba1d0>, <m5.objects.GarnetSyntheticTraffic.GarnetSyntheticTraffic object at 0x7f51587ba4a8>, <m5.objects.GarnetSyntheticTraffic.GarnetSyntheticTraffic object at 0x7f51587ba780>, <m5.objects.GarnetSyntheticTraffic.GarnetSyntheticTraffic object at 0x7f51587baa58>, <m5.objects.GarnetSyntheticTraffic.GarnetSyntheticTraffic object at 0x7f51587bad30>, <m5.objects.GarnetSyntheticTraffic.GarnetSyntheticTraffic object at 0x7f51587c2048>, <m5.objects.GarnetSyntheticTraffic.GarnetSyntheticTraffic object at 0x7f51587c2320>, <m5.objects.GarnetSyntheticTraffic.GarnetSyntheticTraffic object at 0x7f51587c25f8>, <m5.objects.GarnetSyntheticTraffic.GarnetSyntheticTraffic object at 0x7f51587c28d0>, <m5.objects.GarnetSyntheticTraffic.GarnetSyntheticTraffic object at 0x7f51587c2ba8>, <m5.objects.GarnetSyntheticTraffic.GarnetSyntheticTraffic object at 0x7f51587c2e80>, <m5.objects.GarnetSyntheticTraffic.GarnetSyntheticTraffic object at 0x7f51587cb198>, <m5.objects.GarnetSyntheticTraffic.GarnetSyntheticTraffic object at 0x7f51587cb470>, <m5.objects.GarnetSyntheticTraffic.GarnetSyntheticTraffic object at 0x7f51587cb748>, <m5.objects.GarnetSyntheticTraffic.GarnetSyntheticTraffic object at 0x7f51587cba20>, <m5.objects.GarnetSyntheticTraffic.GarnetSyntheticTraffic object at 0x7f51587cbcf8>, <m5.objects.GarnetSyntheticTraffic.GarnetSyntheticTraffic object at 0x7f51587cbfd0>])
ingesting configs/topologies/nr_list_ndbt/ns_m_scop_nndbt.nrl
ingesting configs/topologies/vn_maps_ndbt/ns_m_scop_nndbt_none_2vns.vn
ext_cdc_required = True
