gem5 Simulator System.  https://www.gem5.org
gem5 is copyrighted software; use the --copyright option for details.

gem5 version 22.0.0.2
gem5 compiled Jun 17 2023 14:31:12
gem5 started Nov 18 2023 15:49:07
gem5 executing on mnemosyne14.ecn.purdue.edu, pid 23432
command line: ./build/Garnet_standalone/gem5.fast -d ./synth_outputs/simple/2b/mixed/mclb_hops_4_6_40cpus_4xdirs_4.0GHz/coh/lpbt_s_power/0_16/ configs/auto_top/auto_top_synth.py --topology EscapeVirtualNetworks --noi_routers 20 --sim-cycles 2147483647 --injectionrate 0.16 --noc_clk 4.0GHz --sys-clock 4.0GHz --ruby-clock 4.0GHz --noi_clk 3.6GHz --router_map_file configs/topologies/paper_solutions/lpbt_s_power.map --flat_vn_map_file configs/topologies/vn_maps_mclb/lpbt_s_power_mclb_hops_4vns.vn --flat_nr_map_file configs/topologies/nr_list_mclb/lpbt_s_power_mclb.nrl --ruby --mem_or_coh coh --mem-size 320000000 --num-dirs 160 --num-cpus 40 --network garnet --mem-type SimpleMemory --routing-algorithm 2 --use_escape_vns --synth_traffic --vcs-per-vnet 6 --evn_deadlock_partition 2 --evn_n_deadlock_free 1 --evn_min_n_deadlock_free 4

info: Standard input is not a terminal, disabling listeners.
ingesting configs/topologies/vn_maps_mclb/lpbt_s_power_mclb_hops_4vns.vn
cpus(40)=[<m5.objects.GarnetSyntheticTraffic.GarnetSyntheticTraffic object at 0x7f86bb0a0048>, <m5.objects.GarnetSyntheticTraffic.GarnetSyntheticTraffic object at 0x7f86bb0a0e10>, <m5.objects.GarnetSyntheticTraffic.GarnetSyntheticTraffic object at 0x7f86bac1d128>, <m5.objects.GarnetSyntheticTraffic.GarnetSyntheticTraffic object at 0x7f86bac1d400>, <m5.objects.GarnetSyntheticTraffic.GarnetSyntheticTraffic object at 0x7f86bac1d6d8>, <m5.objects.GarnetSyntheticTraffic.GarnetSyntheticTraffic object at 0x7f86bac1d9b0>, <m5.objects.GarnetSyntheticTraffic.GarnetSyntheticTraffic object at 0x7f86bac1dc88>, <m5.objects.GarnetSyntheticTraffic.GarnetSyntheticTraffic object at 0x7f86bac1df60>, <m5.objects.GarnetSyntheticTraffic.GarnetSyntheticTraffic object at 0x7f86bac26278>, <m5.objects.GarnetSyntheticTraffic.GarnetSyntheticTraffic object at 0x7f86bac26550>, <m5.objects.GarnetSyntheticTraffic.GarnetSyntheticTraffic object at 0x7f86bac26828>, <m5.objects.GarnetSyntheticTraffic.GarnetSyntheticTraffic object at 0x7f86bac26b00>, <m5.objects.GarnetSyntheticTraffic.GarnetSyntheticTraffic object at 0x7f86bb0a0860>, <m5.objects.GarnetSyntheticTraffic.GarnetSyntheticTraffic object at 0x7f86bb091eb8>, <m5.objects.GarnetSyntheticTraffic.GarnetSyntheticTraffic object at 0x7f86bb09b6d8>, <m5.objects.GarnetSyntheticTraffic.GarnetSyntheticTraffic object at 0x7f86bb09bd30>, <m5.objects.GarnetSyntheticTraffic.GarnetSyntheticTraffic object at 0x7f86bac26d68>, <m5.objects.GarnetSyntheticTraffic.GarnetSyntheticTraffic object at 0x7f86bac32080>, <m5.objects.GarnetSyntheticTraffic.GarnetSyntheticTraffic object at 0x7f86bac32358>, <m5.objects.GarnetSyntheticTraffic.GarnetSyntheticTraffic object at 0x7f86bac32630>, <m5.objects.GarnetSyntheticTraffic.GarnetSyntheticTraffic object at 0x7f86bac32908>, <m5.objects.GarnetSyntheticTraffic.GarnetSyntheticTraffic object at 0x7f86bac32be0>, <m5.objects.GarnetSyntheticTraffic.GarnetSyntheticTraffic object at 0x7f86bac32eb8>, <m5.objects.GarnetSyntheticTraffic.GarnetSyntheticTraffic object at 0x7f86bac391d0>, <m5.objects.GarnetSyntheticTraffic.GarnetSyntheticTraffic object at 0x7f86bac394a8>, <m5.objects.GarnetSyntheticTraffic.GarnetSyntheticTraffic object at 0x7f86bac39780>, <m5.objects.GarnetSyntheticTraffic.GarnetSyntheticTraffic object at 0x7f86bac39a58>, <m5.objects.GarnetSyntheticTraffic.GarnetSyntheticTraffic object at 0x7f86bac39d30>, <m5.objects.GarnetSyntheticTraffic.GarnetSyntheticTraffic object at 0x7f86bac41048>, <m5.objects.GarnetSyntheticTraffic.GarnetSyntheticTraffic object at 0x7f86bac41320>, <m5.objects.GarnetSyntheticTraffic.GarnetSyntheticTraffic object at 0x7f86bac415f8>, <m5.objects.GarnetSyntheticTraffic.GarnetSyntheticTraffic object at 0x7f86bac418d0>, <m5.objects.GarnetSyntheticTraffic.GarnetSyntheticTraffic object at 0x7f86bac41ba8>, <m5.objects.GarnetSyntheticTraffic.GarnetSyntheticTraffic object at 0x7f86bac41e80>, <m5.objects.GarnetSyntheticTraffic.GarnetSyntheticTraffic object at 0x7f86bac4a198>, <m5.objects.GarnetSyntheticTraffic.GarnetSyntheticTraffic object at 0x7f86bac4a470>, <m5.objects.GarnetSyntheticTraffic.GarnetSyntheticTraffic object at 0x7f86bac4a748>, <m5.objects.GarnetSyntheticTraffic.GarnetSyntheticTraffic object at 0x7f86bac4aa20>, <m5.objects.GarnetSyntheticTraffic.GarnetSyntheticTraffic object at 0x7f86bac4acf8>, <m5.objects.GarnetSyntheticTraffic.GarnetSyntheticTraffic object at 0x7f86bac4afd0>])
ingesting configs/topologies/nr_list_mclb/lpbt_s_power_mclb.nrl
ingesting configs/topologies/vn_maps_mclb/lpbt_s_power_mclb_hops_4vns.vn
ext_cdc_required = True
