gem5 Simulator System.  https://www.gem5.org
gem5 is copyrighted software; use the --copyright option for details.

gem5 version 22.1.0.0
gem5 compiled Apr 26 2024 15:22:46
gem5 started Apr 27 2024 05:58:45
gem5 executing on mnemosyne23.ecn.purdue.edu, pid 1319
command line: ./build/Garnet_standalone/gem5.fast -d ./synth_outputs/simple/2b/mixed/uniform/2evns_12vcs_64cpus_4xdirs_4.0GHz/mem/bdonut_64r/0_06/ configs/netsmith/netsmith_synth.py --topology EscapeVirtualNetworks --noi_routers 64 --sim-cycles 2147483647 --injectionrate 0.06 --noc_clk 4.0GHz --sys-clock 4.0GHz --ruby-clock 4.0GHz --noi_clk 2.7GHz --router_map_file ./topologies_and_routing/topo_maps/64r/prev/bdonut_64r.map --flat_vn_map_file ./topologies_and_routing/vn_maps/bdonut_64r_nndbt_hops_2vns.vn --flat_nr_map_file ./topologies_and_routing/nr_lists/bdonut_64r_nndbt.nrl --ruby --mem_or_coh mem --mem-size 4096000 --num-dirs 64 --num-cpus 64 --network garnet --mem-type SimpleMemory --routing-algorithm 2 --use_escape_vns --synth_traffic --vcs-per-vnet 12 --evn_deadlock_partition 10 --evn_n_deadlock_free 1 --evn_min_n_deadlock_free 2

info: Standard input is not a terminal, disabling listeners.
cpus(64)=[<m5.objects.GarnetSyntheticTraffic.GarnetSyntheticTraffic object at 0x7f136553ff98>, <m5.objects.GarnetSyntheticTraffic.GarnetSyntheticTraffic object at 0x7f136553fb00>, <m5.objects.GarnetSyntheticTraffic.GarnetSyntheticTraffic object at 0x7f136553f3c8>, <m5.objects.GarnetSyntheticTraffic.GarnetSyntheticTraffic object at 0x7f1365537f98>, <m5.objects.GarnetSyntheticTraffic.GarnetSyntheticTraffic object at 0x7f1365537a58>, <m5.objects.GarnetSyntheticTraffic.GarnetSyntheticTraffic object at 0x7f1365537668>, <m5.objects.GarnetSyntheticTraffic.GarnetSyntheticTraffic object at 0x7f1365537198>, <m5.objects.GarnetSyntheticTraffic.GarnetSyntheticTraffic object at 0x7f1365532da0>, <m5.objects.GarnetSyntheticTraffic.GarnetSyntheticTraffic object at 0x7f1365532828>, <m5.objects.GarnetSyntheticTraffic.GarnetSyntheticTraffic object at 0x7f1365532400>, <m5.objects.GarnetSyntheticTraffic.GarnetSyntheticTraffic object at 0x7f136553bf60>, <m5.objects.GarnetSyntheticTraffic.GarnetSyntheticTraffic object at 0x7f136553b9b0>, <m5.objects.GarnetSyntheticTraffic.GarnetSyntheticTraffic object at 0x7f1365555278>, <m5.objects.GarnetSyntheticTraffic.GarnetSyntheticTraffic object at 0x7f1365555550>, <m5.objects.GarnetSyntheticTraffic.GarnetSyntheticTraffic object at 0x7f1365555828>, <m5.objects.GarnetSyntheticTraffic.GarnetSyntheticTraffic object at 0x7f1365555b00>, <m5.objects.GarnetSyntheticTraffic.GarnetSyntheticTraffic object at 0x7f1365555dd8>, <m5.objects.GarnetSyntheticTraffic.GarnetSyntheticTraffic object at 0x7f1362d240f0>, <m5.objects.GarnetSyntheticTraffic.GarnetSyntheticTraffic object at 0x7f1362d243c8>, <m5.objects.GarnetSyntheticTraffic.GarnetSyntheticTraffic object at 0x7f1362d24630>, <m5.objects.GarnetSyntheticTraffic.GarnetSyntheticTraffic object at 0x7f1362d24908>, <m5.objects.GarnetSyntheticTraffic.GarnetSyntheticTraffic object at 0x7f1362d24be0>, <m5.objects.GarnetSyntheticTraffic.GarnetSyntheticTraffic object at 0x7f1362d24e80>, <m5.objects.GarnetSyntheticTraffic.GarnetSyntheticTraffic object at 0x7f1362d2b198>, <m5.objects.GarnetSyntheticTraffic.GarnetSyntheticTraffic object at 0x7f1362d2b470>, <m5.objects.GarnetSyntheticTraffic.GarnetSyntheticTraffic object at 0x7f1362d2b748>, <m5.objects.GarnetSyntheticTraffic.GarnetSyntheticTraffic object at 0x7f1362d2ba20>, <m5.objects.GarnetSyntheticTraffic.GarnetSyntheticTraffic object at 0x7f1362d2bcf8>, <m5.objects.GarnetSyntheticTraffic.GarnetSyntheticTraffic object at 0x7f1362d2bfd0>, <m5.objects.GarnetSyntheticTraffic.GarnetSyntheticTraffic object at 0x7f1362d342e8>, <m5.objects.GarnetSyntheticTraffic.GarnetSyntheticTraffic object at 0x7f1362d345c0>, <m5.objects.GarnetSyntheticTraffic.GarnetSyntheticTraffic object at 0x7f1362d34898>, <m5.objects.GarnetSyntheticTraffic.GarnetSyntheticTraffic object at 0x7f1362d34b70>, <m5.objects.GarnetSyntheticTraffic.GarnetSyntheticTraffic object at 0x7f1362d34e48>, <m5.objects.GarnetSyntheticTraffic.GarnetSyntheticTraffic object at 0x7f1362d3c160>, <m5.objects.GarnetSyntheticTraffic.GarnetSyntheticTraffic object at 0x7f1362d3c438>, <m5.objects.GarnetSyntheticTraffic.GarnetSyntheticTraffic object at 0x7f1362d3c710>, <m5.objects.GarnetSyntheticTraffic.GarnetSyntheticTraffic object at 0x7f1362d3c9e8>, <m5.objects.GarnetSyntheticTraffic.GarnetSyntheticTraffic object at 0x7f1362d3ccc0>, <m5.objects.GarnetSyntheticTraffic.GarnetSyntheticTraffic object at 0x7f1362d3cf98>, <m5.objects.GarnetSyntheticTraffic.GarnetSyntheticTraffic object at 0x7f1362d442b0>, <m5.objects.GarnetSyntheticTraffic.GarnetSyntheticTraffic object at 0x7f1362d44588>, <m5.objects.GarnetSyntheticTraffic.GarnetSyntheticTraffic object at 0x7f1362d44860>, <m5.objects.GarnetSyntheticTraffic.GarnetSyntheticTraffic object at 0x7f1362d44b38>, <m5.objects.GarnetSyntheticTraffic.GarnetSyntheticTraffic object at 0x7f1362d44e10>, <m5.objects.GarnetSyntheticTraffic.GarnetSyntheticTraffic object at 0x7f1362d4c128>, <m5.objects.GarnetSyntheticTraffic.GarnetSyntheticTraffic object at 0x7f1362d4c400>, <m5.objects.GarnetSyntheticTraffic.GarnetSyntheticTraffic object at 0x7f1362d4c6d8>, <m5.objects.GarnetSyntheticTraffic.GarnetSyntheticTraffic object at 0x7f1362d4c9b0>, <m5.objects.GarnetSyntheticTraffic.GarnetSyntheticTraffic object at 0x7f1362d4cc88>, <m5.objects.GarnetSyntheticTraffic.GarnetSyntheticTraffic object at 0x7f1362d4cf60>, <m5.objects.GarnetSyntheticTraffic.GarnetSyntheticTraffic object at 0x7f1362d54278>, <m5.objects.GarnetSyntheticTraffic.GarnetSyntheticTraffic object at 0x7f1362d54550>, <m5.objects.GarnetSyntheticTraffic.GarnetSyntheticTraffic object at 0x7f1362d54828>, <m5.objects.GarnetSyntheticTraffic.GarnetSyntheticTraffic object at 0x7f1362d54b00>, <m5.objects.GarnetSyntheticTraffic.GarnetSyntheticTraffic object at 0x7f1362d54dd8>, <m5.objects.GarnetSyntheticTraffic.GarnetSyntheticTraffic object at 0x7f1362d5c0f0>, <m5.objects.GarnetSyntheticTraffic.GarnetSyntheticTraffic object at 0x7f1362d5c3c8>, <m5.objects.GarnetSyntheticTraffic.GarnetSyntheticTraffic object at 0x7f1362d5c6a0>, <m5.objects.GarnetSyntheticTraffic.GarnetSyntheticTraffic object at 0x7f1362d5c978>, <m5.objects.GarnetSyntheticTraffic.GarnetSyntheticTraffic object at 0x7f1362d5cc50>, <m5.objects.GarnetSyntheticTraffic.GarnetSyntheticTraffic object at 0x7f1362d5cf28>, <m5.objects.GarnetSyntheticTraffic.GarnetSyntheticTraffic object at 0x7f1362ce2240>, <m5.objects.GarnetSyntheticTraffic.GarnetSyntheticTraffic object at 0x7f1362ce2518>])
ingesting ./topologies_and_routing/nr_lists/bdonut_64r_nndbt.nrl
ingesting ./topologies_and_routing/vn_maps/bdonut_64r_nndbt_hops_2vns.vn
Adding external link: l1 cache node 0 <-> noi router 0 
Adding external link: l1 cache node 1 <-> noi router 1 
Adding external link: l1 cache node 2 <-> noi router 2 
Adding external link: l1 cache node 3 <-> noi router 3 
Adding external link: l1 cache node 4 <-> noi router 4 
Adding external link: l1 cache node 5 <-> noi router 5 
Adding external link: l1 cache node 6 <-> noi router 6 
Adding external link: l1 cache node 7 <-> noi router 7 
Adding external link: l1 cache node 8 <-> noi router 8 
Adding external link: l1 cache node 9 <-> noi router 9 
Adding external link: l1 cache node 10 <-> noi router 10 
Adding external link: l1 cache node 11 <-> noi router 11 
Adding external link: l1 cache node 12 <-> noi router 12 
Adding external link: l1 cache node 13 <-> noi router 13 
Adding external link: l1 cache node 14 <-> noi router 14 
Adding external link: l1 cache node 15 <-> noi router 15 
Adding external link: l1 cache node 16 <-> noi router 16 
Adding external link: l1 cache node 17 <-> noi router 17 
Adding external link: l1 cache node 18 <-> noi router 18 
Adding external link: l1 cache node 19 <-> noi router 19 
Adding external link: l1 cache node 20 <-> noi router 20 
Adding external link: l1 cache node 21 <-> noi router 21 
Adding external link: l1 cache node 22 <-> noi router 22 
Adding external link: l1 cache node 23 <-> noi router 23 
Adding external link: l1 cache node 24 <-> noi router 24 
Adding external link: l1 cache node 25 <-> noi router 25 Global frequency set at 1000000000000 ticks per second

Adding external link: l1 cache node 26 <-> noi router 26 
Adding external link: l1 cache node 27 <-> noi router 27 
Adding external link: l1 cache node 28 <-> noi router 28 
Adding external link: l1 cache node 29 <-> noi router 29 
Adding external link: l1 cache node 30 <-> noi router 30 
Adding external link: l1 cache node 31 <-> noi router 31 
Adding external link: l1 cache node 32 <-> noi router 32 
Adding external link: l1 cache node 33 <-> noi router 33 
Adding external link: l1 cache node 34 <-> noi router 34 
Adding external link: l1 cache node 35 <-> noi router 35 
Adding external link: l1 cache node 36 <-> noi router 36 
Adding external link: l1 cache node 37 <-> noi router 37 
Adding external link: l1 cache node 38 <-> noi router 38 
Adding external link: l1 cache node 39 <-> noi router 39 
Adding external link: l1 cache node 40 <-> noi router 40 
Adding external link: l1 cache node 41 <-> noi router 41 
Adding external link: l1 cache node 42 <-> noi router 42 
Adding external link: l1 cache node 43 <-> noi router 43 
Adding external link: l1 cache node 44 <-> noi router 44 
Adding external link: l1 cache node 45 <-> noi router 45 
Adding external link: l1 cache node 46 <-> noi router 46 
Adding external link: l1 cache node 47 <-> noi router 47 
Adding external link: l1 cache node 48 <-> noi router 48 
Adding external link: l1 cache node 49 <-> noi router 49 
Adding external link: l1 cache node 50 <-> noi router 50 
Adding external link: l1 cache node 51 <-> noi router 51 
Adding external link: l1 cache node 52 <-> noi router 52 
Adding external link: l1 cache node 53 <-> noi router 53 
Adding external link: l1 cache node 54 <-> noi router 54 
Adding external link: l1 cache node 55 <-> noi router 55 
Adding external link: l1 cache node 56 <-> noi router 56 
Adding external link: l1 cache node 57 <-> noi router 57 
Adding external link: l1 cache node 58 <-> noi router 58 
Adding external link: l1 cache node 59 <-> noi router 59 
Adding external link: l1 cache node 60 <-> noi router 60 
Adding external link: l1 cache node 61 <-> noi router 61 
Adding external link: l1 cache node 62 <-> noi router 62 
Adding external link: l1 cache node 63 <-> noi router 63 
Adding external link (id 64): dir node 0 <-> noi router 0
Adding external link (id 65): dir node 1 <-> noi router 8
Adding external link (id 66): dir node 2 <-> noi router 16
Adding external link (id 67): dir node 3 <-> noi router 24
Adding external link (id 68): dir node 4 <-> noi router 32
Adding external link (id 69): dir node 5 <-> noi router 40
Adding external link (id 70): dir node 6 <-> noi router 48
Adding external link (id 71): dir node 7 <-> noi router 56
Adding external link (id 72): dir node 8 <-> noi router 7
Adding external link (id 73): dir node 9 <-> noi router 15
Adding external link (id 74): dir node 10 <-> noi router 23
Adding external link (id 75): dir node 11 <-> noi router 31
Adding external link (id 76): dir node 12 <-> noi router 39
Adding external link (id 77): dir node 13 <-> noi router 47
Adding external link (id 78): dir node 14 <-> noi router 55
Adding external link (id 79): dir node 15 <-> noi router 63
Adding external link (id 80): dir node 16 <-> noi router 0
Adding external link (id 81): dir node 17 <-> noi router 8
Adding external link (id 82): dir node 18 <-> noi router 16
Adding external link (id 83): dir node 19 <-> noi router 24
Adding external link (id 84): dir node 20 <-> noi router 32
Adding external link (id 85): dir node 21 <-> noi router 40
Adding external link (id 86): dir node 22 <-> noi router 48
Adding external link (id 87): dir node 23 <-> noi router 56
Adding external link (id 88): dir node 24 <-> noi router 7
Adding external link (id 89): dir node 25 <-> noi router 15
Adding external link (id 90): dir node 26 <-> noi router 23
Adding external link (id 91): dir node 27 <-> noi router 31
Adding external link (id 92): dir node 28 <-> noi router 39
Adding external link (id 93): dir node 29 <-> noi router 47
Adding external link (id 94): dir node 30 <-> noi router 55
Adding external link (id 95): dir node 31 <-> noi router 63
Adding external link (id 96): dir node 32 <-> noi router 0
Adding external link (id 97): dir node 33 <-> noi router 8
Adding external link (id 98): dir node 34 <-> noi router 16
Adding external link (id 99): dir node 35 <-> noi router 24
Adding external link (id 100): dir node 36 <-> noi router 32
Adding external link (id 101): dir node 37 <-> noi router 40
Adding external link (id 102): dir node 38 <-> noi router 48
Adding external link (id 103): dir node 39 <-> noi router 56
Adding external link (id 104): dir node 40 <-> noi router 7
Adding external link (id 105): dir node 41 <-> noi router 15
Adding external link (id 106): dir node 42 <-> noi router 23
Adding external link (id 107): dir node 43 <-> noi router 31
Adding external link (id 108): dir node 44 <-> noi router 39
Adding external link (id 109): dir node 45 <-> noi router 47
Adding external link (id 110): dir node 46 <-> noi router 55
Adding external link (id 111): dir node 47 <-> noi router 63
Adding external link (id 112): dir node 48 <-> noi router 0
Adding external link (id 113): dir node 49 <-> noi router 8
Adding external link (id 114): dir node 50 <-> noi router 16
Adding external link (id 115): dir node 51 <-> noi router 24
Adding external link (id 116): dir node 52 <-> noi router 32
Adding external link (id 117): dir node 53 <-> noi router 40
Adding external link (id 118): dir node 54 <-> noi router 48
Adding external link (id 119): dir node 55 <-> noi router 56
Adding external link (id 120): dir node 56 <-> noi router 7
Adding external link (id 121): dir node 57 <-> noi router 15
Adding external link (id 122): dir node 58 <-> noi router 23
Adding external link (id 123): dir node 59 <-> noi router 31
Adding external link (id 124): dir node 60 <-> noi router 39
Adding external link (id 125): dir node 61 <-> noi router 47
Adding external link (id 126): dir node 62 <-> noi router 55
Adding external link (id 127): dir node 63 <-> noi router 63
ingesting ./topologies_and_routing/topo_maps/64r/prev/bdonut_64r.map
per_cpu=64000
autotop_synth:: About to run simulation
Exiting @ tick 2147483750 because Network Tester completed simCycles
build/Garnet_standalone/base/statistics.hh:280: warn: One of the stats is a legacy stat. Legacy stat is a stat that does not belong to any statistics::Group. Legacy stat is deprecated.
build/Garnet_standalone/base/statistics.hh:280: warn: One of the stats is a legacy stat. Legacy stat is a stat that does not belong to any statistics::Group. Legacy stat is deprecated.
build/Garnet_standalone/base/statistics.hh:280: warn: One of the stats is a legacy stat. Legacy stat is a stat that does not belong to any statistics::Group. Legacy stat is deprecated.
build/Garnet_standalone/base/statistics.hh:280: warn: One of the stats is a legacy stat. Legacy stat is a stat that does not belong to any statistics::Group. Legacy stat is deprecated.
build/Garnet_standalone/mem/ruby/network/garnet/GarnetNetwork.cc:128: info: Garnet version 3.0
warn: rounding error > tolerance
    370.370370 rounded to 370
warn: rounding error > tolerance
    370.370370 rounded to 370
warn: No dot file generated. Please install pydot to generate the dot file and pdf.
warn: rounding error > tolerance
    370.370370 rounded to 370
build/Garnet_standalone/sim/simulate.cc:192: info: Entering event queue @ 0.  Starting simulation...
build/Garnet_standalone/mem/ruby/system/Sequencer.cc:615: warn: Replacement policy updates recently became the responsibility of SLICC state machines. Make sure to setMRU() near callbacks in .sm files!
