gem5 Simulator System.  https://www.gem5.org
gem5 is copyrighted software; use the --copyright option for details.

gem5 version 22.0.0.2
gem5 compiled Jun 17 2023 14:31:12
gem5 started Nov 18 2023 15:51:13
gem5 executing on mnemosyne14.ecn.purdue.edu, pid 24110
command line: ./build/Garnet_standalone/gem5.fast -d ./synth_outputs/simple/2b/mixed/mclb_hops_4_6_40cpus_4xdirs_4.0GHz/coh/lpbt_m_latop/0_195/ configs/auto_top/auto_top_synth.py --topology EscapeVirtualNetworks --noi_routers 20 --sim-cycles 2147483647 --injectionrate 0.195 --noc_clk 4.0GHz --sys-clock 4.0GHz --ruby-clock 4.0GHz --noi_clk 3.0GHz --router_map_file configs/topologies/paper_solutions/lpbt_m_latop.map --flat_vn_map_file configs/topologies/vn_maps_mclb/lpbt_m_latop_mclb_hops_4vns.vn --flat_nr_map_file configs/topologies/nr_list_mclb/lpbt_m_latop_mclb.nrl --ruby --mem_or_coh coh --mem-size 320000000 --num-dirs 160 --num-cpus 40 --network garnet --mem-type SimpleMemory --routing-algorithm 2 --use_escape_vns --synth_traffic --vcs-per-vnet 6 --evn_deadlock_partition 2 --evn_n_deadlock_free 1 --evn_min_n_deadlock_free 4

info: Standard input is not a terminal, disabling listeners.
ingesting configs/topologies/vn_maps_mclb/lpbt_m_latop_mclb_hops_4vns.vn
cpus(40)=[<m5.objects.GarnetSyntheticTraffic.GarnetSyntheticTraffic object at 0x7f0dbf927080>, <m5.objects.GarnetSyntheticTraffic.GarnetSyntheticTraffic object at 0x7f0dbf927e48>, <m5.objects.GarnetSyntheticTraffic.GarnetSyntheticTraffic object at 0x7f0dbf4a5160>, <m5.objects.GarnetSyntheticTraffic.GarnetSyntheticTraffic object at 0x7f0dbf4a5438>, <m5.objects.GarnetSyntheticTraffic.GarnetSyntheticTraffic object at 0x7f0dbf4a56d8>, <m5.objects.GarnetSyntheticTraffic.GarnetSyntheticTraffic object at 0x7f0dbf4a59b0>, <m5.objects.GarnetSyntheticTraffic.GarnetSyntheticTraffic object at 0x7f0dbf4a5c88>, <m5.objects.GarnetSyntheticTraffic.GarnetSyntheticTraffic object at 0x7f0dbf4a5f60>, <m5.objects.GarnetSyntheticTraffic.GarnetSyntheticTraffic object at 0x7f0dbf4ae278>, <m5.objects.GarnetSyntheticTraffic.GarnetSyntheticTraffic object at 0x7f0dbf4ae550>, <m5.objects.GarnetSyntheticTraffic.GarnetSyntheticTraffic object at 0x7f0dbf4ae828>, <m5.objects.GarnetSyntheticTraffic.GarnetSyntheticTraffic object at 0x7f0dbf4aeb00>, <m5.objects.GarnetSyntheticTraffic.GarnetSyntheticTraffic object at 0x7f0dbf927898>, <m5.objects.GarnetSyntheticTraffic.GarnetSyntheticTraffic object at 0x7f0dbf918eb8>, <m5.objects.GarnetSyntheticTraffic.GarnetSyntheticTraffic object at 0x7f0dbf922710>, <m5.objects.GarnetSyntheticTraffic.GarnetSyntheticTraffic object at 0x7f0dbf922d68>, <m5.objects.GarnetSyntheticTraffic.GarnetSyntheticTraffic object at 0x7f0dbf4aed68>, <m5.objects.GarnetSyntheticTraffic.GarnetSyntheticTraffic object at 0x7f0dbf4ba080>, <m5.objects.GarnetSyntheticTraffic.GarnetSyntheticTraffic object at 0x7f0dbf4ba358>, <m5.objects.GarnetSyntheticTraffic.GarnetSyntheticTraffic object at 0x7f0dbf4ba630>, <m5.objects.GarnetSyntheticTraffic.GarnetSyntheticTraffic object at 0x7f0dbf4ba908>, <m5.objects.GarnetSyntheticTraffic.GarnetSyntheticTraffic object at 0x7f0dbf4babe0>, <m5.objects.GarnetSyntheticTraffic.GarnetSyntheticTraffic object at 0x7f0dbf4baeb8>, <m5.objects.GarnetSyntheticTraffic.GarnetSyntheticTraffic object at 0x7f0dbf4c11d0>, <m5.objects.GarnetSyntheticTraffic.GarnetSyntheticTraffic object at 0x7f0dbf4c14a8>, <m5.objects.GarnetSyntheticTraffic.GarnetSyntheticTraffic object at 0x7f0dbf4c1780>, <m5.objects.GarnetSyntheticTraffic.GarnetSyntheticTraffic object at 0x7f0dbf4c1a58>, <m5.objects.GarnetSyntheticTraffic.GarnetSyntheticTraffic object at 0x7f0dbf4c1d30>, <m5.objects.GarnetSyntheticTraffic.GarnetSyntheticTraffic object at 0x7f0dbf4c9048>, <m5.objects.GarnetSyntheticTraffic.GarnetSyntheticTraffic object at 0x7f0dbf4c9320>, <m5.objects.GarnetSyntheticTraffic.GarnetSyntheticTraffic object at 0x7f0dbf4c95f8>, <m5.objects.GarnetSyntheticTraffic.GarnetSyntheticTraffic object at 0x7f0dbf4c98d0>, <m5.objects.GarnetSyntheticTraffic.GarnetSyntheticTraffic object at 0x7f0dbf4c9ba8>, <m5.objects.GarnetSyntheticTraffic.GarnetSyntheticTraffic object at 0x7f0dbf4c9e80>, <m5.objects.GarnetSyntheticTraffic.GarnetSyntheticTraffic object at 0x7f0dbf4d2198>, <m5.objects.GarnetSyntheticTraffic.GarnetSyntheticTraffic object at 0x7f0dbf4d2470>, <m5.objects.GarnetSyntheticTraffic.GarnetSyntheticTraffic object at 0x7f0dbf4d2748>, <m5.objects.GarnetSyntheticTraffic.GarnetSyntheticTraffic object at 0x7f0dbf4d2a20>, <m5.objects.GarnetSyntheticTraffic.GarnetSyntheticTraffic object at 0x7f0dbf4d2cf8>, <m5.objects.GarnetSyntheticTraffic.GarnetSyntheticTraffic object at 0x7f0dbf4d2fd0>])
ingesting configs/topologies/nr_list_mclb/lpbt_m_latop_mclb.nrl
ingesting configs/topologies/vn_maps_mclb/lpbt_m_latop_mclb_hops_4vns.vn
ext_cdc_required = True
