gem5 Simulator System.  https://www.gem5.org
gem5 is copyrighted software; use the --copyright option for details.

gem5 version 22.0.0.2
gem5 compiled Jun 17 2023 14:31:12
gem5 started Nov 18 2023 15:50:11
gem5 executing on mnemosyne14.ecn.purdue.edu, pid 23806
command line: ./build/Garnet_standalone/gem5.fast -d ./synth_outputs/simple/2b/mixed/mclb_hops_4_6_40cpus_4xdirs_4.0GHz/coh/ns_m_scop/0_18/ configs/auto_top/auto_top_synth.py --topology EscapeVirtualNetworks --noi_routers 20 --sim-cycles 2147483647 --injectionrate 0.18 --noc_clk 4.0GHz --sys-clock 4.0GHz --ruby-clock 4.0GHz --noi_clk 3.0GHz --router_map_file configs/topologies/paper_solutions/ns_m_scop.map --flat_vn_map_file configs/topologies/vn_maps_mclb/ns_m_scop_mclb_hops_4vns.vn --flat_nr_map_file configs/topologies/nr_list_mclb/ns_m_scop_mclb.nrl --ruby --mem_or_coh coh --mem-size 320000000 --num-dirs 160 --num-cpus 40 --network garnet --mem-type SimpleMemory --routing-algorithm 2 --use_escape_vns --synth_traffic --vcs-per-vnet 6 --evn_deadlock_partition 2 --evn_n_deadlock_free 1 --evn_min_n_deadlock_free 4

info: Standard input is not a terminal, disabling listeners.
ingesting configs/topologies/vn_maps_mclb/ns_m_scop_mclb_hops_4vns.vn
cpus(40)=[<m5.objects.GarnetSyntheticTraffic.GarnetSyntheticTraffic object at 0x7f0be95bf0f0>, <m5.objects.GarnetSyntheticTraffic.GarnetSyntheticTraffic object at 0x7f0be95bfdd8>, <m5.objects.GarnetSyntheticTraffic.GarnetSyntheticTraffic object at 0x7f0be913d0f0>, <m5.objects.GarnetSyntheticTraffic.GarnetSyntheticTraffic object at 0x7f0be913d3c8>, <m5.objects.GarnetSyntheticTraffic.GarnetSyntheticTraffic object at 0x7f0be913d6a0>, <m5.objects.GarnetSyntheticTraffic.GarnetSyntheticTraffic object at 0x7f0be913d978>, <m5.objects.GarnetSyntheticTraffic.GarnetSyntheticTraffic object at 0x7f0be913dc50>, <m5.objects.GarnetSyntheticTraffic.GarnetSyntheticTraffic object at 0x7f0be913df28>, <m5.objects.GarnetSyntheticTraffic.GarnetSyntheticTraffic object at 0x7f0be9146240>, <m5.objects.GarnetSyntheticTraffic.GarnetSyntheticTraffic object at 0x7f0be9146518>, <m5.objects.GarnetSyntheticTraffic.GarnetSyntheticTraffic object at 0x7f0be91467f0>, <m5.objects.GarnetSyntheticTraffic.GarnetSyntheticTraffic object at 0x7f0be9146ac8>, <m5.objects.GarnetSyntheticTraffic.GarnetSyntheticTraffic object at 0x7f0be95bf7b8>, <m5.objects.GarnetSyntheticTraffic.GarnetSyntheticTraffic object at 0x7f0be95b0e80>, <m5.objects.GarnetSyntheticTraffic.GarnetSyntheticTraffic object at 0x7f0be95ba668>, <m5.objects.GarnetSyntheticTraffic.GarnetSyntheticTraffic object at 0x7f0be95bacc0>, <m5.objects.GarnetSyntheticTraffic.GarnetSyntheticTraffic object at 0x7f0be9146d30>, <m5.objects.GarnetSyntheticTraffic.GarnetSyntheticTraffic object at 0x7f0be9152048>, <m5.objects.GarnetSyntheticTraffic.GarnetSyntheticTraffic object at 0x7f0be9152320>, <m5.objects.GarnetSyntheticTraffic.GarnetSyntheticTraffic object at 0x7f0be91525f8>, <m5.objects.GarnetSyntheticTraffic.GarnetSyntheticTraffic object at 0x7f0be91528d0>, <m5.objects.GarnetSyntheticTraffic.GarnetSyntheticTraffic object at 0x7f0be9152ba8>, <m5.objects.GarnetSyntheticTraffic.GarnetSyntheticTraffic object at 0x7f0be9152e80>, <m5.objects.GarnetSyntheticTraffic.GarnetSyntheticTraffic object at 0x7f0be9159198>, <m5.objects.GarnetSyntheticTraffic.GarnetSyntheticTraffic object at 0x7f0be9159470>, <m5.objects.GarnetSyntheticTraffic.GarnetSyntheticTraffic object at 0x7f0be9159748>, <m5.objects.GarnetSyntheticTraffic.GarnetSyntheticTraffic object at 0x7f0be9159a20>, <m5.objects.GarnetSyntheticTraffic.GarnetSyntheticTraffic object at 0x7f0be9159cf8>, <m5.objects.GarnetSyntheticTraffic.GarnetSyntheticTraffic object at 0x7f0be9159fd0>, <m5.objects.GarnetSyntheticTraffic.GarnetSyntheticTraffic object at 0x7f0be91612e8>, <m5.objects.GarnetSyntheticTraffic.GarnetSyntheticTraffic object at 0x7f0be91615c0>, <m5.objects.GarnetSyntheticTraffic.GarnetSyntheticTraffic object at 0x7f0be9161898>, <m5.objects.GarnetSyntheticTraffic.GarnetSyntheticTraffic object at 0x7f0be9161b70>, <m5.objects.GarnetSyntheticTraffic.GarnetSyntheticTraffic object at 0x7f0be9161e48>, <m5.objects.GarnetSyntheticTraffic.GarnetSyntheticTraffic object at 0x7f0be916a160>, <m5.objects.GarnetSyntheticTraffic.GarnetSyntheticTraffic object at 0x7f0be916a438>, <m5.objects.GarnetSyntheticTraffic.GarnetSyntheticTraffic object at 0x7f0be916a710>, <m5.objects.GarnetSyntheticTraffic.GarnetSyntheticTraffic object at 0x7f0be916a9e8>, <m5.objects.GarnetSyntheticTraffic.GarnetSyntheticTraffic object at 0x7f0be916acc0>, <m5.objects.GarnetSyntheticTraffic.GarnetSyntheticTraffic object at 0x7f0be916af98>])
ingesting configs/topologies/nr_list_mclb/ns_m_scop_mclb.nrl
ingesting configs/topologies/vn_maps_mclb/ns_m_scop_mclb_hops_4vns.vn
ext_cdc_required = True
