gem5 Simulator System.  https://www.gem5.org
gem5 is copyrighted software; use the --copyright option for details.

gem5 version 22.0.0.2
gem5 compiled Jun 17 2023 14:31:12
gem5 started Nov 18 2023 08:54:38
gem5 executing on mnemosyne24.ecn.purdue.edu, pid 27150
command line: ./build/Garnet_standalone/gem5.fast -d ./synth_outputs/simple/2b/mixed/nndbt_none_2_6_40cpus_4xdirs_4.0GHz/mem/lpbt_s_latop/0_11/ configs/auto_top/auto_top_synth.py --topology EscapeVirtualNetworks --noi_routers 20 --sim-cycles 2147483647 --injectionrate 0.11 --noc_clk 4.0GHz --sys-clock 4.0GHz --ruby-clock 4.0GHz --noi_clk 3.6GHz --router_map_file configs/topologies/paper_solutions/lpbt_s_latop.map --flat_vn_map_file configs/topologies/vn_maps_ndbt/lpbt_s_latop_nndbt_none_2vns.vn --flat_nr_map_file configs/topologies/nr_list_ndbt/lpbt_s_latop_nndbt.nrl --ruby --mem_or_coh mem --mem-size 320000000 --num-dirs 64 --num-cpus 40 --network garnet --mem-type SimpleMemory --routing-algorithm 2 --use_escape_vns --synth_traffic --vcs-per-vnet 6 --evn_deadlock_partition 4 --evn_n_deadlock_free 1 --evn_min_n_deadlock_free 2

info: Standard input is not a terminal, disabling listeners.
ingesting configs/topologies/vn_maps_ndbt/lpbt_s_latop_nndbt_none_2vns.vn
cpus(40)=[<m5.objects.GarnetSyntheticTraffic.GarnetSyntheticTraffic object at 0x7fde34999048>, <m5.objects.GarnetSyntheticTraffic.GarnetSyntheticTraffic object at 0x7fde34999e10>, <m5.objects.GarnetSyntheticTraffic.GarnetSyntheticTraffic object at 0x7fde34516128>, <m5.objects.GarnetSyntheticTraffic.GarnetSyntheticTraffic object at 0x7fde34516400>, <m5.objects.GarnetSyntheticTraffic.GarnetSyntheticTraffic object at 0x7fde345166d8>, <m5.objects.GarnetSyntheticTraffic.GarnetSyntheticTraffic object at 0x7fde345169b0>, <m5.objects.GarnetSyntheticTraffic.GarnetSyntheticTraffic object at 0x7fde34516c88>, <m5.objects.GarnetSyntheticTraffic.GarnetSyntheticTraffic object at 0x7fde34516f60>, <m5.objects.GarnetSyntheticTraffic.GarnetSyntheticTraffic object at 0x7fde3451f278>, <m5.objects.GarnetSyntheticTraffic.GarnetSyntheticTraffic object at 0x7fde3451f550>, <m5.objects.GarnetSyntheticTraffic.GarnetSyntheticTraffic object at 0x7fde3451f828>, <m5.objects.GarnetSyntheticTraffic.GarnetSyntheticTraffic object at 0x7fde3451fb00>, <m5.objects.GarnetSyntheticTraffic.GarnetSyntheticTraffic object at 0x7fde34999860>, <m5.objects.GarnetSyntheticTraffic.GarnetSyntheticTraffic object at 0x7fde34989eb8>, <m5.objects.GarnetSyntheticTraffic.GarnetSyntheticTraffic object at 0x7fde349946d8>, <m5.objects.GarnetSyntheticTraffic.GarnetSyntheticTraffic object at 0x7fde34994d30>, <m5.objects.GarnetSyntheticTraffic.GarnetSyntheticTraffic object at 0x7fde3451fd68>, <m5.objects.GarnetSyntheticTraffic.GarnetSyntheticTraffic object at 0x7fde3452b080>, <m5.objects.GarnetSyntheticTraffic.GarnetSyntheticTraffic object at 0x7fde3452b358>, <m5.objects.GarnetSyntheticTraffic.GarnetSyntheticTraffic object at 0x7fde3452b630>, <m5.objects.GarnetSyntheticTraffic.GarnetSyntheticTraffic object at 0x7fde3452b908>, <m5.objects.GarnetSyntheticTraffic.GarnetSyntheticTraffic object at 0x7fde3452bbe0>, <m5.objects.GarnetSyntheticTraffic.GarnetSyntheticTraffic object at 0x7fde3452beb8>, <m5.objects.GarnetSyntheticTraffic.GarnetSyntheticTraffic object at 0x7fde345321d0>, <m5.objects.GarnetSyntheticTraffic.GarnetSyntheticTraffic object at 0x7fde345324a8>, <m5.objects.GarnetSyntheticTraffic.GarnetSyntheticTraffic object at 0x7fde34532780>, <m5.objects.GarnetSyntheticTraffic.GarnetSyntheticTraffic object at 0x7fde34532a58>, <m5.objects.GarnetSyntheticTraffic.GarnetSyntheticTraffic object at 0x7fde34532d30>, <m5.objects.GarnetSyntheticTraffic.GarnetSyntheticTraffic object at 0x7fde3453a048>, <m5.objects.GarnetSyntheticTraffic.GarnetSyntheticTraffic object at 0x7fde3453a320>, <m5.objects.GarnetSyntheticTraffic.GarnetSyntheticTraffic object at 0x7fde3453a5f8>, <m5.objects.GarnetSyntheticTraffic.GarnetSyntheticTraffic object at 0x7fde3453a8d0>, <m5.objects.GarnetSyntheticTraffic.GarnetSyntheticTraffic object at 0x7fde3453aba8>, <m5.objects.GarnetSyntheticTraffic.GarnetSyntheticTraffic object at 0x7fde3453ae80>, <m5.objects.GarnetSyntheticTraffic.GarnetSyntheticTraffic object at 0x7fde34543198>, <m5.objects.GarnetSyntheticTraffic.GarnetSyntheticTraffic object at 0x7fde34543470>, <m5.objects.GarnetSyntheticTraffic.GarnetSyntheticTraffic object at 0x7fde34543748>, <m5.objects.GarnetSyntheticTraffic.GarnetSyntheticTraffic object at 0x7fde34543a20>, <m5.objects.GarnetSyntheticTraffic.GarnetSyntheticTraffic object at 0x7fde34543cf8>, <m5.objects.GarnetSyntheticTraffic.GarnetSyntheticTraffic object at 0x7fde34543fd0>])
ingesting configs/topologies/nr_list_ndbt/lpbt_s_latop_nndbt.nrl
ingesting configs/topologies/vn_maps_ndbt/lpbt_s_latop_nndbt_none_2vns.vn
Adding external link: l1 cache node 0 <-> noi router 0 
Adding external link: l1 cache node 1 <-> noi router 1 
Adding external link: l1 cache node 2 <-> noi router 2 
Adding external link: l1 cache node 3 <-> noi router 3 
Adding external link: l1 cache node 4 <-> noi router 4 
Adding external link: l1 cache node 5 <-> noi router 5 
Adding external link: l1 cache node 6 <-> noi router 6 
Adding external link: l1 cache node 7 <-> noi router 7 
Adding external link: l1 cache node 8 <-> noi router 8 
Adding external link: l1 cache node 9 <-> noi router 9 
Adding external link: l1 cache node 10 <-> noi router 10 
Adding external link: l1 cache node 11 <-> noi router 11 
Adding external link: l1 cache node 12 <-> noi router 12 
Adding external link: l1 cache node 13 <-> noi router 13 
Adding external link: l1 cache node 14 <-> noi router 14 
Adding external link: l1 cache node 15 <-> noi router 15 
Adding external link: l1 cache node 16 <-> noi router 16 
Adding external link: l1 cache node 17 <-> noi router 17 
Adding external link: l1 cache node 18 <-> noi router 18 
Adding external link: l1 cache node 19 <-> noi router 19 
Adding external link: l1 cache node 20 <-> noi router 0 
Adding external link: l1 cache node 21 <-> noi router 1 
Adding external link: l1 cache node 22 <-> noi router 2 
Adding external link: l1 cache node 23 <-> noi router 3 
Adding external link: l1 cache node 24 <-> noi router 4 
Adding external link: l1 cache node 25 <-> noi router 5 
Adding external link: l1 cache node 26 <-> noi router 6 
Adding external link: l1 cache node 27 <-> noi router 7 
Adding external link: l1 cache node 28 <-> noi router 8 
Adding external link: l1 cache node 29 <-> noi router 9 
Adding external link: l1 cache node 30 <-> noi router 10 
Adding external link: l1 cache node 31 <-> noi router 11 
Adding external link: l1 cache node 32 <-> noi router 12 
Adding external link: l1 cache node 33 <-> noi router 13 
Adding external link: l1 cache node 34 <-> noi router 14 
Adding external link: l1 cache node 35 <-> noi router 15 
Adding external link: l1 cache node 36 <-> noi router 16 
Adding external link: l1 cache node 37 <-> noi router 17 
Adding external link: l1 cache node 38 <-> noi router 18 
Adding external link: l1 cache node 39 <-> noi router 19 
Adding external link (id 40): dir node 0 <-> noi router 0
Adding external link (id 41): dir node 1 <-> noi router 4
Adding external link (id 42): dir node 2 <-> noi router 5
Adding external link (id 43): dir node 3 <-> noi router 9
Adding external link (id 44): dir node 4 <-> noi router 10
Adding external link (id 45): dir node 5 <-> noi router 14
Adding external link (id 46): dir node 6 <-> noi router 15
Adding external link (id 47): dir node 7 <-> noi router 19
Adding external link (id 48): dir node 8 <-> noi router 0
Adding external link (id 49): dir node 9 <-> noi router 4
Adding external link (id 50): dir node 10 <-> noi router 5
Adding external link (id 51): dir node 11 <-> noi router 9
Adding external link (id 52): dir node 12 <-> noi router 10
Adding external link (id 53): dir node 13 <-> noi router 14
Adding external link (id 54): dir node 14 <-> noi router 15
Adding external link (id 55): dir node 15 <-> noi router 19
Adding external link (id 56): dir node 16 <-> noi router 0
Adding external link (id 57): dir node 17 <-> noi router 4
Adding external link (id 58): dir node 18 <-> noi router 5Global frequency set at 1000000000000 ticks per second

Adding external link (id 59): dir node 19 <-> noi router 9
Adding external link (id 60): dir node 20 <-> noi router 10
Adding external link (id 61): dir node 21 <-> noi router 14
Adding external link (id 62): dir node 22 <-> noi router 15
Adding external link (id 63): dir node 23 <-> noi router 19
Adding external link (id 64): dir node 24 <-> noi router 0
Adding external link (id 65): dir node 25 <-> noi router 4
Adding external link (id 66): dir node 26 <-> noi router 5
Adding external link (id 67): dir node 27 <-> noi router 9
Adding external link (id 68): dir node 28 <-> noi router 10
Adding external link (id 69): dir node 29 <-> noi router 14
Adding external link (id 70): dir node 30 <-> noi router 15
Adding external link (id 71): dir node 31 <-> noi router 19
Adding external link (id 72): dir node 32 <-> noi router 0
Adding external link (id 73): dir node 33 <-> noi router 4
Adding external link (id 74): dir node 34 <-> noi router 5
Adding external link (id 75): dir node 35 <-> noi router 9
Adding external link (id 76): dir node 36 <-> noi router 10
Adding external link (id 77): dir node 37 <-> noi router 14
Adding external link (id 78): dir node 38 <-> noi router 15
Adding external link (id 79): dir node 39 <-> noi router 19
Adding external link (id 80): dir node 40 <-> noi router 0
Adding external link (id 81): dir node 41 <-> noi router 4
Adding external link (id 82): dir node 42 <-> noi router 5
Adding external link (id 83): dir node 43 <-> noi router 9
Adding external link (id 84): dir node 44 <-> noi router 10
Adding external link (id 85): dir node 45 <-> noi router 14
Adding external link (id 86): dir node 46 <-> noi router 15
Adding external link (id 87): dir node 47 <-> noi router 19
Adding external link (id 88): dir node 48 <-> noi router 0
Adding external link (id 89): dir node 49 <-> noi router 4
Adding external link (id 90): dir node 50 <-> noi router 5
Adding external link (id 91): dir node 51 <-> noi router 9
Adding external link (id 92): dir node 52 <-> noi router 10
Adding external link (id 93): dir node 53 <-> noi router 14
Adding external link (id 94): dir node 54 <-> noi router 15
Adding external link (id 95): dir node 55 <-> noi router 19
Adding external link (id 96): dir node 56 <-> noi router 0
Adding external link (id 97): dir node 57 <-> noi router 4
Adding external link (id 98): dir node 58 <-> noi router 5
Adding external link (id 99): dir node 59 <-> noi router 9
Adding external link (id 100): dir node 60 <-> noi router 10
Adding external link (id 101): dir node 61 <-> noi router 14
Adding external link (id 102): dir node 62 <-> noi router 15
Adding external link (id 103): dir node 63 <-> noi router 19
ingesting configs/topologies/paper_solutions/lpbt_s_latop.map
per_cpu=8000000
initing a garnet network
autotop_synth:: About to run simulation
Possible network deadlock in vnet: 2, evn_class 1, at time: 12545750 in NI 26 and router 6 
post_dlock=1 and dlock thresh=100000 in NI 26
Possible network deadlock in vnet: 2, evn_class 1, at time: 12610250 in NI 5 and router 5 
post_dlock=1 and dlock thresh=100000 in NI 5
Possible network deadlock in vnet: 2, evn_class 1, at time: 12642250 in NI 25 and router 5 
post_dlock=1 and dlock thresh=100000 in NI 25
Possible network deadlock in vnet: 2, evn_class 1, at time: 13771250 in NI 0 and router 0 
post_dlock=1 and dlock thresh=100000 in NI 0
Possible network deadlock in vnet: 2, evn_class 1, at time: 14943750 in NI 21 and router 1 
post_dlock=1 and dlock thresh=100000 in NI 21
Possible network deadlock in vnet: 2, evn_class 1, at time: 17951500 in NI 1 and router 1 
post_dlock=1 and dlock thresh=100000 in NI 1
Possible network deadlock in vnet: 2, evn_class 1, at time: 22661000 in NI 20 and router 0 
post_dlock=1 and dlock thresh=100000 in NI 20
Possible network deadlock in vnet: 2, evn_class 1, at time: 25045750 in NI 26 and router 6 
post_dlock=1 and dlock thresh=200000 in NI 26
Possible network deadlock in vnet: 2, evn_class 1, at time: 25110250 in NI 5 and router 5 
post_dlock=1 and dlock thresh=200000 in NI 5
Possible network deadlock in vnet: 2, evn_class 1, at time: 25142250 in NI 25 and router 5 
post_dlock=1 and dlock thresh=200000 in NI 25
Possible network deadlock in vnet: 2, evn_class 1, at time: 25225000 in NI 22 and router 2 
post_dlock=1 and dlock thresh=100000 in NI 22
Possible network deadlock in vnet: 2, evn_class 1, at time: 26271250 in NI 0 and router 0 
post_dlock=1 and dlock thresh=200000 in NI 0
Possible network deadlock in vnet: 2, evn_class 1, at time: 27443750 in NI 21 and router 1 
post_dlock=1 and dlock thresh=200000 in NI 21
Possible network deadlock in vnet: 2, evn_class 1, at time: 35346000 in NI 6 and router 6 
post_dlock=1 and dlock thresh=100000 in NI 6
Possible network deadlock in vnet: 2, evn_class 1, at time: 47843750 in NI 20 and router 0 
post_dlock=1 and dlock thresh=200000 in NI 20
Possible network deadlock in vnet: 2, evn_class 1, at time: 47846000 in NI 6 and router 6 
post_dlock=1 and dlock thresh=200000 in NI 6
Possible network deadlock in vnet: 2, evn_class 1, at time: 50045750 in NI 26 and router 6 
post_dlock=1 and dlock thresh=400000 in NI 26
Possible network deadlock in vnet: 2, evn_class 1, at time: 50110250 in NI 5 and router 5 
post_dlock=1 and dlock thresh=400000 in NI 5
Possible network deadlock in vnet: 2, evn_class 1, at time: 51271250 in NI 0 and router 0 
post_dlock=1 and dlock thresh=400000 in NI 0
Possible network deadlock in vnet: 2, evn_class 1, at time: 52331750 in NI 22 and router 2 
post_dlock=1 and dlock thresh=200000 in NI 22
Possible network deadlock in vnet: 2, evn_class 1, at time: 54116000 in NI 1 and router 1 
post_dlock=1 and dlock thresh=200000 in NI 1
Possible network deadlock in vnet: 2, evn_class 1, at time: 72843750 in NI 20 and router 0 
post_dlock=1 and dlock thresh=400000 in NI 20
Possible network deadlock in vnet: 2, evn_class 1, at time: 79101250 in NI 21 and router 1 
post_dlock=1 and dlock thresh=400000 in NI 21
Possible network deadlock in vnet: 2, evn_class 1, at time: 79112500 in NI 25 and router 5 
post_dlock=1 and dlock thresh=400000 in NI 25
Possible network deadlock in vnet: 2, evn_class 1, at time: 101271250 in NI 0 and router 0 
post_dlock=1 and dlock thresh=800000 in NI 0
Possible network deadlock in vnet: 2, evn_class 1, at time: 106205000 in NI 2 and router 2 
post_dlock=1 and dlock thresh=100000 in NI 2
Possible network deadlock in vnet: 2, evn_class 1, at time: 113803500 in NI 6 and router 6 
post_dlock=1 and dlock thresh=400000 in NI 6
Possible network deadlock in vnet: 2, evn_class 1, at time: 122843750 in NI 20 and router 0 
post_dlock=1 and dlock thresh=800000 in NI 20
Possible network deadlock in vnet: 2, evn_class 1, at time: 129101250 in NI 21 and router 1 
post_dlock=1 and dlock thresh=800000 in NI 21
Possible network deadlock in vnet: 2, evn_class 1, at time: 129112500 in NI 25 and router 5 
post_dlock=1 and dlock thresh=800000 in NI 25
Possible network deadlock in vnet: 2, evn_class 1, at time: 162670750 in NI 1 and router 1 
post_dlock=1 and dlock thresh=400000 in NI 1
Possible network deadlock in vnet: 2, evn_class 1, at time: 163802250 in NI 5 and router 5 
post_dlock=1 and dlock thresh=800000 in NI 5
Possible network deadlock in vnet: 2, evn_class 1, at time: 186560000 in NI 26 and router 6 
post_dlock=1 and dlock thresh=800000 in NI 26
Possible network deadlock in vnet: 2, evn_class 1, at time: 222843750 in NI 20 and router 0 
post_dlock=1 and dlock thresh=1600000 in NI 20
Possible network deadlock in vnet: 2, evn_class 1, at time: 229112500 in NI 25 and router 5 
post_dlock=1 and dlock thresh=1600000 in NI 25
Possible network deadlock in vnet: 2, evn_class 1, at time: 283874500 in NI 22 and router 2 
post_dlock=1 and dlock thresh=400000 in NI 22
Possible network deadlock in vnet: 2, evn_class 1, at time: 368609250 in NI 1 and router 1 
post_dlock=1 and dlock thresh=800000 in NI 1
Possible network deadlock in vnet: 2, evn_class 1, at time: 388811250 in NI 6 and router 6 
post_dlock=1 and dlock thresh=800000 in NI 6
Possible network deadlock in vnet: 2, evn_class 1, at time: 394984000 in NI 2 and router 2 
post_dlock=1 and dlock thresh=200000 in NI 2
Possible network deadlock in vnet: 2, evn_class 1, at time: 601429250 in NI 27 and router 7 
post_dlock=1 and dlock thresh=100000 in NI 27
Possible network deadlock in vnet: 2, evn_class 1, at time: 700458500 in NI 0 and router 0 
post_dlock=1 and dlock thresh=1600000 in NI 0
Possible network deadlock in vnet: 2, evn_class 1, at time: 724206000 in NI 26 and router 6 
post_dlock=1 and dlock thresh=1600000 in NI 26
Possible network deadlock in vnet: 2, evn_class 1, at time: 922544500 in NI 22 and router 2 
post_dlock=1 and dlock thresh=800000 in NI 22
Possible network deadlock in vnet: 2, evn_class 1, at time: 964232250 in NI 5 and router 5 
post_dlock=1 and dlock thresh=1600000 in NI 5
Possible network deadlock in vnet: 2, evn_class 1, at time: 1164232250 in NI 5 and router 5 
post_dlock=1 and dlock thresh=3200000 in NI 5
Possible network deadlock in vnet: 2, evn_class 1, at time: 1257210750 in NI 6 and router 6 
post_dlock=1 and dlock thresh=1600000 in NI 6
Possible network deadlock in vnet: 2, evn_class 1, at time: 1276175750 in NI 23 and router 3 
post_dlock=1 and dlock thresh=100000 in NI 23
Exiting @ tick 2147483750 because Network Tester completed simCycles
build/Garnet_standalone/base/statistics.hh:280: warn: One of the stats is a legacy stat. Legacy stat is a stat that does not belong to any statistics::Group. Legacy stat is deprecated.
build/Garnet_standalone/base/statistics.hh:280: warn: One of the stats is a legacy stat. Legacy stat is a stat that does not belong to any statistics::Group. Legacy stat is deprecated.
build/Garnet_standalone/base/statistics.hh:280: warn: One of the stats is a legacy stat. Legacy stat is a stat that does not belong to any statistics::Group. Legacy stat is deprecated.
build/Garnet_standalone/base/statistics.hh:280: warn: One of the stats is a legacy stat. Legacy stat is a stat that does not belong to any statistics::Group. Legacy stat is deprecated.
build/Garnet_standalone/mem/ruby/network/garnet/GarnetNetwork.cc:124: info: Garnet version 3.0
warn: No dot file generated. Please install pydot to generate the dot file and pdf.
build/Garnet_standalone/sim/simulate.cc:194: info: Entering event queue @ 0.  Starting simulation...
build/Garnet_standalone/mem/ruby/system/Sequencer.cc:613: warn: Replacement policy updates recently became the responsibility of SLICC state machines. Make sure to setMRU() near callbacks in .sm files!
