gem5 Simulator System.  https://www.gem5.org
gem5 is copyrighted software; use the --copyright option for details.

gem5 version 22.0.0.2
gem5 compiled Jun 17 2023 14:31:12
gem5 started Nov 18 2023 15:48:25
gem5 executing on mnemosyne14.ecn.purdue.edu, pid 23108
command line: ./build/Garnet_standalone/gem5.fast -d ./synth_outputs/simple/2b/mixed/mclb_hops_4_6_40cpus_4xdirs_4.0GHz/coh/ns_m_scop/0_15/ configs/auto_top/auto_top_synth.py --topology EscapeVirtualNetworks --noi_routers 20 --sim-cycles 2147483647 --injectionrate 0.15 --noc_clk 4.0GHz --sys-clock 4.0GHz --ruby-clock 4.0GHz --noi_clk 3.0GHz --router_map_file configs/topologies/paper_solutions/ns_m_scop.map --flat_vn_map_file configs/topologies/vn_maps_mclb/ns_m_scop_mclb_hops_4vns.vn --flat_nr_map_file configs/topologies/nr_list_mclb/ns_m_scop_mclb.nrl --ruby --mem_or_coh coh --mem-size 320000000 --num-dirs 160 --num-cpus 40 --network garnet --mem-type SimpleMemory --routing-algorithm 2 --use_escape_vns --synth_traffic --vcs-per-vnet 6 --evn_deadlock_partition 2 --evn_n_deadlock_free 1 --evn_min_n_deadlock_free 4

info: Standard input is not a terminal, disabling listeners.
ingesting configs/topologies/vn_maps_mclb/ns_m_scop_mclb_hops_4vns.vn
cpus(40)=[<m5.objects.GarnetSyntheticTraffic.GarnetSyntheticTraffic object at 0x7f83e54c9080>, <m5.objects.GarnetSyntheticTraffic.GarnetSyntheticTraffic object at 0x7f83e54c9e48>, <m5.objects.GarnetSyntheticTraffic.GarnetSyntheticTraffic object at 0x7f83e5045160>, <m5.objects.GarnetSyntheticTraffic.GarnetSyntheticTraffic object at 0x7f83e5045438>, <m5.objects.GarnetSyntheticTraffic.GarnetSyntheticTraffic object at 0x7f83e5045710>, <m5.objects.GarnetSyntheticTraffic.GarnetSyntheticTraffic object at 0x7f83e50459e8>, <m5.objects.GarnetSyntheticTraffic.GarnetSyntheticTraffic object at 0x7f83e5045cc0>, <m5.objects.GarnetSyntheticTraffic.GarnetSyntheticTraffic object at 0x7f83e5045f98>, <m5.objects.GarnetSyntheticTraffic.GarnetSyntheticTraffic object at 0x7f83e504e2b0>, <m5.objects.GarnetSyntheticTraffic.GarnetSyntheticTraffic object at 0x7f83e504e588>, <m5.objects.GarnetSyntheticTraffic.GarnetSyntheticTraffic object at 0x7f83e504e860>, <m5.objects.GarnetSyntheticTraffic.GarnetSyntheticTraffic object at 0x7f83e504eb38>, <m5.objects.GarnetSyntheticTraffic.GarnetSyntheticTraffic object at 0x7f83e54c9898>, <m5.objects.GarnetSyntheticTraffic.GarnetSyntheticTraffic object at 0x7f83e54b9eb8>, <m5.objects.GarnetSyntheticTraffic.GarnetSyntheticTraffic object at 0x7f83e54c3710>, <m5.objects.GarnetSyntheticTraffic.GarnetSyntheticTraffic object at 0x7f83e54c3d68>, <m5.objects.GarnetSyntheticTraffic.GarnetSyntheticTraffic object at 0x7f83e504eda0>, <m5.objects.GarnetSyntheticTraffic.GarnetSyntheticTraffic object at 0x7f83e505a0b8>, <m5.objects.GarnetSyntheticTraffic.GarnetSyntheticTraffic object at 0x7f83e505a390>, <m5.objects.GarnetSyntheticTraffic.GarnetSyntheticTraffic object at 0x7f83e505a668>, <m5.objects.GarnetSyntheticTraffic.GarnetSyntheticTraffic object at 0x7f83e505a940>, <m5.objects.GarnetSyntheticTraffic.GarnetSyntheticTraffic object at 0x7f83e505ac18>, <m5.objects.GarnetSyntheticTraffic.GarnetSyntheticTraffic object at 0x7f83e505aef0>, <m5.objects.GarnetSyntheticTraffic.GarnetSyntheticTraffic object at 0x7f83e5062208>, <m5.objects.GarnetSyntheticTraffic.GarnetSyntheticTraffic object at 0x7f83e50624e0>, <m5.objects.GarnetSyntheticTraffic.GarnetSyntheticTraffic object at 0x7f83e50627b8>, <m5.objects.GarnetSyntheticTraffic.GarnetSyntheticTraffic object at 0x7f83e5062a90>, <m5.objects.GarnetSyntheticTraffic.GarnetSyntheticTraffic object at 0x7f83e5062d68>, <m5.objects.GarnetSyntheticTraffic.GarnetSyntheticTraffic object at 0x7f83e5069080>, <m5.objects.GarnetSyntheticTraffic.GarnetSyntheticTraffic object at 0x7f83e5069358>, <m5.objects.GarnetSyntheticTraffic.GarnetSyntheticTraffic object at 0x7f83e5069630>, <m5.objects.GarnetSyntheticTraffic.GarnetSyntheticTraffic object at 0x7f83e5069908>, <m5.objects.GarnetSyntheticTraffic.GarnetSyntheticTraffic object at 0x7f83e5069be0>, <m5.objects.GarnetSyntheticTraffic.GarnetSyntheticTraffic object at 0x7f83e5069eb8>, <m5.objects.GarnetSyntheticTraffic.GarnetSyntheticTraffic object at 0x7f83e50721d0>, <m5.objects.GarnetSyntheticTraffic.GarnetSyntheticTraffic object at 0x7f83e50724a8>, <m5.objects.GarnetSyntheticTraffic.GarnetSyntheticTraffic object at 0x7f83e5072780>, <m5.objects.GarnetSyntheticTraffic.GarnetSyntheticTraffic object at 0x7f83e5072a58>, <m5.objects.GarnetSyntheticTraffic.GarnetSyntheticTraffic object at 0x7f83e5072d30>, <m5.objects.GarnetSyntheticTraffic.GarnetSyntheticTraffic object at 0x7f83e5079048>])
ingesting configs/topologies/nr_list_mclb/ns_m_scop_mclb.nrl
ingesting configs/topologies/vn_maps_mclb/ns_m_scop_mclb_hops_4vns.vn
ext_cdc_required = True
