
---------- Begin Simulation Statistics ----------
simSeconds                                   0.002147                       # Number of seconds simulated (Second)
simTicks                                   2147483750                       # Number of ticks simulated (Tick)
finalTick                                  2147483750                       # Number of ticks from beginning of simulation (restored from checkpoints and never reset) (Tick)
simFreq                                  1000000000000                       # The number of ticks per simulated second ((Tick/Second))
hostSeconds                                  15153.81                       # Real time elapsed on the host (Second)
hostTickRate                                   141712                       # The number of ticks simulated per host second (ticks/s) ((Tick/Second))
hostMemory                                   32308024                       # Number of bytes of host memory used (Byte)
system.clk_domain.clock                           250                       # Clock period in ticks (Tick)
system.cpu0.power_state.pwrStateResidencyTicks::UNDEFINED   2147483750                       # Cumulative time (in ticks) in various power states (Tick)
system.cpu1.power_state.pwrStateResidencyTicks::UNDEFINED   2147483750                       # Cumulative time (in ticks) in various power states (Tick)
system.cpu10.power_state.pwrStateResidencyTicks::UNDEFINED   2147483750                       # Cumulative time (in ticks) in various power states (Tick)
system.cpu11.power_state.pwrStateResidencyTicks::UNDEFINED   2147483750                       # Cumulative time (in ticks) in various power states (Tick)
system.cpu12.power_state.pwrStateResidencyTicks::UNDEFINED   2147483750                       # Cumulative time (in ticks) in various power states (Tick)
system.cpu13.power_state.pwrStateResidencyTicks::UNDEFINED   2147483750                       # Cumulative time (in ticks) in various power states (Tick)
system.cpu14.power_state.pwrStateResidencyTicks::UNDEFINED   2147483750                       # Cumulative time (in ticks) in various power states (Tick)
system.cpu15.power_state.pwrStateResidencyTicks::UNDEFINED   2147483750                       # Cumulative time (in ticks) in various power states (Tick)
system.cpu16.power_state.pwrStateResidencyTicks::UNDEFINED   2147483750                       # Cumulative time (in ticks) in various power states (Tick)
system.cpu17.power_state.pwrStateResidencyTicks::UNDEFINED   2147483750                       # Cumulative time (in ticks) in various power states (Tick)
system.cpu18.power_state.pwrStateResidencyTicks::UNDEFINED   2147483750                       # Cumulative time (in ticks) in various power states (Tick)
system.cpu19.power_state.pwrStateResidencyTicks::UNDEFINED   2147483750                       # Cumulative time (in ticks) in various power states (Tick)
system.cpu2.power_state.pwrStateResidencyTicks::UNDEFINED   2147483750                       # Cumulative time (in ticks) in various power states (Tick)
system.cpu20.power_state.pwrStateResidencyTicks::UNDEFINED   2147483750                       # Cumulative time (in ticks) in various power states (Tick)
system.cpu21.power_state.pwrStateResidencyTicks::UNDEFINED   2147483750                       # Cumulative time (in ticks) in various power states (Tick)
system.cpu22.power_state.pwrStateResidencyTicks::UNDEFINED   2147483750                       # Cumulative time (in ticks) in various power states (Tick)
system.cpu23.power_state.pwrStateResidencyTicks::UNDEFINED   2147483750                       # Cumulative time (in ticks) in various power states (Tick)
system.cpu24.power_state.pwrStateResidencyTicks::UNDEFINED   2147483750                       # Cumulative time (in ticks) in various power states (Tick)
system.cpu25.power_state.pwrStateResidencyTicks::UNDEFINED   2147483750                       # Cumulative time (in ticks) in various power states (Tick)
system.cpu26.power_state.pwrStateResidencyTicks::UNDEFINED   2147483750                       # Cumulative time (in ticks) in various power states (Tick)
system.cpu27.power_state.pwrStateResidencyTicks::UNDEFINED   2147483750                       # Cumulative time (in ticks) in various power states (Tick)
system.cpu28.power_state.pwrStateResidencyTicks::UNDEFINED   2147483750                       # Cumulative time (in ticks) in various power states (Tick)
system.cpu29.power_state.pwrStateResidencyTicks::UNDEFINED   2147483750                       # Cumulative time (in ticks) in various power states (Tick)
system.cpu3.power_state.pwrStateResidencyTicks::UNDEFINED   2147483750                       # Cumulative time (in ticks) in various power states (Tick)
system.cpu30.power_state.pwrStateResidencyTicks::UNDEFINED   2147483750                       # Cumulative time (in ticks) in various power states (Tick)
system.cpu31.power_state.pwrStateResidencyTicks::UNDEFINED   2147483750                       # Cumulative time (in ticks) in various power states (Tick)
system.cpu32.power_state.pwrStateResidencyTicks::UNDEFINED   2147483750                       # Cumulative time (in ticks) in various power states (Tick)
system.cpu33.power_state.pwrStateResidencyTicks::UNDEFINED   2147483750                       # Cumulative time (in ticks) in various power states (Tick)
system.cpu34.power_state.pwrStateResidencyTicks::UNDEFINED   2147483750                       # Cumulative time (in ticks) in various power states (Tick)
system.cpu35.power_state.pwrStateResidencyTicks::UNDEFINED   2147483750                       # Cumulative time (in ticks) in various power states (Tick)
system.cpu36.power_state.pwrStateResidencyTicks::UNDEFINED   2147483750                       # Cumulative time (in ticks) in various power states (Tick)
system.cpu37.power_state.pwrStateResidencyTicks::UNDEFINED   2147483750                       # Cumulative time (in ticks) in various power states (Tick)
system.cpu38.power_state.pwrStateResidencyTicks::UNDEFINED   2147483750                       # Cumulative time (in ticks) in various power states (Tick)
system.cpu39.power_state.pwrStateResidencyTicks::UNDEFINED   2147483750                       # Cumulative time (in ticks) in various power states (Tick)
system.cpu4.power_state.pwrStateResidencyTicks::UNDEFINED   2147483750                       # Cumulative time (in ticks) in various power states (Tick)
system.cpu40.power_state.pwrStateResidencyTicks::UNDEFINED   2147483750                       # Cumulative time (in ticks) in various power states (Tick)
system.cpu41.power_state.pwrStateResidencyTicks::UNDEFINED   2147483750                       # Cumulative time (in ticks) in various power states (Tick)
system.cpu42.power_state.pwrStateResidencyTicks::UNDEFINED   2147483750                       # Cumulative time (in ticks) in various power states (Tick)
system.cpu43.power_state.pwrStateResidencyTicks::UNDEFINED   2147483750                       # Cumulative time (in ticks) in various power states (Tick)
system.cpu44.power_state.pwrStateResidencyTicks::UNDEFINED   2147483750                       # Cumulative time (in ticks) in various power states (Tick)
system.cpu45.power_state.pwrStateResidencyTicks::UNDEFINED   2147483750                       # Cumulative time (in ticks) in various power states (Tick)
system.cpu46.power_state.pwrStateResidencyTicks::UNDEFINED   2147483750                       # Cumulative time (in ticks) in various power states (Tick)
system.cpu47.power_state.pwrStateResidencyTicks::UNDEFINED   2147483750                       # Cumulative time (in ticks) in various power states (Tick)
system.cpu48.power_state.pwrStateResidencyTicks::UNDEFINED   2147483750                       # Cumulative time (in ticks) in various power states (Tick)
system.cpu49.power_state.pwrStateResidencyTicks::UNDEFINED   2147483750                       # Cumulative time (in ticks) in various power states (Tick)
system.cpu5.power_state.pwrStateResidencyTicks::UNDEFINED   2147483750                       # Cumulative time (in ticks) in various power states (Tick)
system.cpu50.power_state.pwrStateResidencyTicks::UNDEFINED   2147483750                       # Cumulative time (in ticks) in various power states (Tick)
system.cpu51.power_state.pwrStateResidencyTicks::UNDEFINED   2147483750                       # Cumulative time (in ticks) in various power states (Tick)
system.cpu52.power_state.pwrStateResidencyTicks::UNDEFINED   2147483750                       # Cumulative time (in ticks) in various power states (Tick)
system.cpu53.power_state.pwrStateResidencyTicks::UNDEFINED   2147483750                       # Cumulative time (in ticks) in various power states (Tick)
system.cpu54.power_state.pwrStateResidencyTicks::UNDEFINED   2147483750                       # Cumulative time (in ticks) in various power states (Tick)
system.cpu55.power_state.pwrStateResidencyTicks::UNDEFINED   2147483750                       # Cumulative time (in ticks) in various power states (Tick)
system.cpu56.power_state.pwrStateResidencyTicks::UNDEFINED   2147483750                       # Cumulative time (in ticks) in various power states (Tick)
system.cpu57.power_state.pwrStateResidencyTicks::UNDEFINED   2147483750                       # Cumulative time (in ticks) in various power states (Tick)
system.cpu58.power_state.pwrStateResidencyTicks::UNDEFINED   2147483750                       # Cumulative time (in ticks) in various power states (Tick)
system.cpu59.power_state.pwrStateResidencyTicks::UNDEFINED   2147483750                       # Cumulative time (in ticks) in various power states (Tick)
system.cpu6.power_state.pwrStateResidencyTicks::UNDEFINED   2147483750                       # Cumulative time (in ticks) in various power states (Tick)
system.cpu60.power_state.pwrStateResidencyTicks::UNDEFINED   2147483750                       # Cumulative time (in ticks) in various power states (Tick)
system.cpu61.power_state.pwrStateResidencyTicks::UNDEFINED   2147483750                       # Cumulative time (in ticks) in various power states (Tick)
system.cpu62.power_state.pwrStateResidencyTicks::UNDEFINED   2147483750                       # Cumulative time (in ticks) in various power states (Tick)
system.cpu63.power_state.pwrStateResidencyTicks::UNDEFINED   2147483750                       # Cumulative time (in ticks) in various power states (Tick)
system.cpu7.power_state.pwrStateResidencyTicks::UNDEFINED   2147483750                       # Cumulative time (in ticks) in various power states (Tick)
system.cpu8.power_state.pwrStateResidencyTicks::UNDEFINED   2147483750                       # Cumulative time (in ticks) in various power states (Tick)
system.cpu9.power_state.pwrStateResidencyTicks::UNDEFINED   2147483750                       # Cumulative time (in ticks) in various power states (Tick)
system.mem_ctrls0.power_state.pwrStateResidencyTicks::UNDEFINED   2147483750                       # Cumulative time (in ticks) in various power states (Tick)
system.mem_ctrls1.power_state.pwrStateResidencyTicks::UNDEFINED   2147483750                       # Cumulative time (in ticks) in various power states (Tick)
system.mem_ctrls10.power_state.pwrStateResidencyTicks::UNDEFINED   2147483750                       # Cumulative time (in ticks) in various power states (Tick)
system.mem_ctrls11.power_state.pwrStateResidencyTicks::UNDEFINED   2147483750                       # Cumulative time (in ticks) in various power states (Tick)
system.mem_ctrls12.power_state.pwrStateResidencyTicks::UNDEFINED   2147483750                       # Cumulative time (in ticks) in various power states (Tick)
system.mem_ctrls13.power_state.pwrStateResidencyTicks::UNDEFINED   2147483750                       # Cumulative time (in ticks) in various power states (Tick)
system.mem_ctrls14.power_state.pwrStateResidencyTicks::UNDEFINED   2147483750                       # Cumulative time (in ticks) in various power states (Tick)
system.mem_ctrls15.power_state.pwrStateResidencyTicks::UNDEFINED   2147483750                       # Cumulative time (in ticks) in various power states (Tick)
system.mem_ctrls16.power_state.pwrStateResidencyTicks::UNDEFINED   2147483750                       # Cumulative time (in ticks) in various power states (Tick)
system.mem_ctrls17.power_state.pwrStateResidencyTicks::UNDEFINED   2147483750                       # Cumulative time (in ticks) in various power states (Tick)
system.mem_ctrls18.power_state.pwrStateResidencyTicks::UNDEFINED   2147483750                       # Cumulative time (in ticks) in various power states (Tick)
system.mem_ctrls19.power_state.pwrStateResidencyTicks::UNDEFINED   2147483750                       # Cumulative time (in ticks) in various power states (Tick)
system.mem_ctrls2.power_state.pwrStateResidencyTicks::UNDEFINED   2147483750                       # Cumulative time (in ticks) in various power states (Tick)
system.mem_ctrls20.power_state.pwrStateResidencyTicks::UNDEFINED   2147483750                       # Cumulative time (in ticks) in various power states (Tick)
system.mem_ctrls21.power_state.pwrStateResidencyTicks::UNDEFINED   2147483750                       # Cumulative time (in ticks) in various power states (Tick)
system.mem_ctrls22.power_state.pwrStateResidencyTicks::UNDEFINED   2147483750                       # Cumulative time (in ticks) in various power states (Tick)
system.mem_ctrls23.power_state.pwrStateResidencyTicks::UNDEFINED   2147483750                       # Cumulative time (in ticks) in various power states (Tick)
system.mem_ctrls24.power_state.pwrStateResidencyTicks::UNDEFINED   2147483750                       # Cumulative time (in ticks) in various power states (Tick)
system.mem_ctrls25.power_state.pwrStateResidencyTicks::UNDEFINED   2147483750                       # Cumulative time (in ticks) in various power states (Tick)
system.mem_ctrls26.power_state.pwrStateResidencyTicks::UNDEFINED   2147483750                       # Cumulative time (in ticks) in various power states (Tick)
system.mem_ctrls27.power_state.pwrStateResidencyTicks::UNDEFINED   2147483750                       # Cumulative time (in ticks) in various power states (Tick)
system.mem_ctrls28.power_state.pwrStateResidencyTicks::UNDEFINED   2147483750                       # Cumulative time (in ticks) in various power states (Tick)
system.mem_ctrls29.power_state.pwrStateResidencyTicks::UNDEFINED   2147483750                       # Cumulative time (in ticks) in various power states (Tick)
system.mem_ctrls3.power_state.pwrStateResidencyTicks::UNDEFINED   2147483750                       # Cumulative time (in ticks) in various power states (Tick)
system.mem_ctrls30.power_state.pwrStateResidencyTicks::UNDEFINED   2147483750                       # Cumulative time (in ticks) in various power states (Tick)
system.mem_ctrls31.power_state.pwrStateResidencyTicks::UNDEFINED   2147483750                       # Cumulative time (in ticks) in various power states (Tick)
system.mem_ctrls32.power_state.pwrStateResidencyTicks::UNDEFINED   2147483750                       # Cumulative time (in ticks) in various power states (Tick)
system.mem_ctrls33.power_state.pwrStateResidencyTicks::UNDEFINED   2147483750                       # Cumulative time (in ticks) in various power states (Tick)
system.mem_ctrls34.power_state.pwrStateResidencyTicks::UNDEFINED   2147483750                       # Cumulative time (in ticks) in various power states (Tick)
system.mem_ctrls35.power_state.pwrStateResidencyTicks::UNDEFINED   2147483750                       # Cumulative time (in ticks) in various power states (Tick)
system.mem_ctrls36.power_state.pwrStateResidencyTicks::UNDEFINED   2147483750                       # Cumulative time (in ticks) in various power states (Tick)
system.mem_ctrls37.power_state.pwrStateResidencyTicks::UNDEFINED   2147483750                       # Cumulative time (in ticks) in various power states (Tick)
system.mem_ctrls38.power_state.pwrStateResidencyTicks::UNDEFINED   2147483750                       # Cumulative time (in ticks) in various power states (Tick)
system.mem_ctrls39.power_state.pwrStateResidencyTicks::UNDEFINED   2147483750                       # Cumulative time (in ticks) in various power states (Tick)
system.mem_ctrls4.power_state.pwrStateResidencyTicks::UNDEFINED   2147483750                       # Cumulative time (in ticks) in various power states (Tick)
system.mem_ctrls40.power_state.pwrStateResidencyTicks::UNDEFINED   2147483750                       # Cumulative time (in ticks) in various power states (Tick)
system.mem_ctrls41.power_state.pwrStateResidencyTicks::UNDEFINED   2147483750                       # Cumulative time (in ticks) in various power states (Tick)
system.mem_ctrls42.power_state.pwrStateResidencyTicks::UNDEFINED   2147483750                       # Cumulative time (in ticks) in various power states (Tick)
system.mem_ctrls43.power_state.pwrStateResidencyTicks::UNDEFINED   2147483750                       # Cumulative time (in ticks) in various power states (Tick)
system.mem_ctrls44.power_state.pwrStateResidencyTicks::UNDEFINED   2147483750                       # Cumulative time (in ticks) in various power states (Tick)
system.mem_ctrls45.power_state.pwrStateResidencyTicks::UNDEFINED   2147483750                       # Cumulative time (in ticks) in various power states (Tick)
system.mem_ctrls46.power_state.pwrStateResidencyTicks::UNDEFINED   2147483750                       # Cumulative time (in ticks) in various power states (Tick)
system.mem_ctrls47.power_state.pwrStateResidencyTicks::UNDEFINED   2147483750                       # Cumulative time (in ticks) in various power states (Tick)
system.mem_ctrls48.power_state.pwrStateResidencyTicks::UNDEFINED   2147483750                       # Cumulative time (in ticks) in various power states (Tick)
system.mem_ctrls49.power_state.pwrStateResidencyTicks::UNDEFINED   2147483750                       # Cumulative time (in ticks) in various power states (Tick)
system.mem_ctrls5.power_state.pwrStateResidencyTicks::UNDEFINED   2147483750                       # Cumulative time (in ticks) in various power states (Tick)
system.mem_ctrls50.power_state.pwrStateResidencyTicks::UNDEFINED   2147483750                       # Cumulative time (in ticks) in various power states (Tick)
system.mem_ctrls51.power_state.pwrStateResidencyTicks::UNDEFINED   2147483750                       # Cumulative time (in ticks) in various power states (Tick)
system.mem_ctrls52.power_state.pwrStateResidencyTicks::UNDEFINED   2147483750                       # Cumulative time (in ticks) in various power states (Tick)
system.mem_ctrls53.power_state.pwrStateResidencyTicks::UNDEFINED   2147483750                       # Cumulative time (in ticks) in various power states (Tick)
system.mem_ctrls54.power_state.pwrStateResidencyTicks::UNDEFINED   2147483750                       # Cumulative time (in ticks) in various power states (Tick)
system.mem_ctrls55.power_state.pwrStateResidencyTicks::UNDEFINED   2147483750                       # Cumulative time (in ticks) in various power states (Tick)
system.mem_ctrls56.power_state.pwrStateResidencyTicks::UNDEFINED   2147483750                       # Cumulative time (in ticks) in various power states (Tick)
system.mem_ctrls57.power_state.pwrStateResidencyTicks::UNDEFINED   2147483750                       # Cumulative time (in ticks) in various power states (Tick)
system.mem_ctrls58.power_state.pwrStateResidencyTicks::UNDEFINED   2147483750                       # Cumulative time (in ticks) in various power states (Tick)
system.mem_ctrls59.power_state.pwrStateResidencyTicks::UNDEFINED   2147483750                       # Cumulative time (in ticks) in various power states (Tick)
system.mem_ctrls6.power_state.pwrStateResidencyTicks::UNDEFINED   2147483750                       # Cumulative time (in ticks) in various power states (Tick)
system.mem_ctrls60.power_state.pwrStateResidencyTicks::UNDEFINED   2147483750                       # Cumulative time (in ticks) in various power states (Tick)
system.mem_ctrls61.power_state.pwrStateResidencyTicks::UNDEFINED   2147483750                       # Cumulative time (in ticks) in various power states (Tick)
system.mem_ctrls62.power_state.pwrStateResidencyTicks::UNDEFINED   2147483750                       # Cumulative time (in ticks) in various power states (Tick)
system.mem_ctrls63.power_state.pwrStateResidencyTicks::UNDEFINED   2147483750                       # Cumulative time (in ticks) in various power states (Tick)
system.mem_ctrls7.power_state.pwrStateResidencyTicks::UNDEFINED   2147483750                       # Cumulative time (in ticks) in various power states (Tick)
system.mem_ctrls8.power_state.pwrStateResidencyTicks::UNDEFINED   2147483750                       # Cumulative time (in ticks) in various power states (Tick)
system.mem_ctrls9.power_state.pwrStateResidencyTicks::UNDEFINED   2147483750                       # Cumulative time (in ticks) in various power states (Tick)
system.ruby.m_outstandReqHistSeqr::bucket_size            1                       (Unspecified)
system.ruby.m_outstandReqHistSeqr::max_bucket            9                       (Unspecified)
system.ruby.m_outstandReqHistSeqr::samples     87882106                       (Unspecified)
system.ruby.m_outstandReqHistSeqr::mean             1                       (Unspecified)
system.ruby.m_outstandReqHistSeqr::gmean            1                       (Unspecified)
system.ruby.m_outstandReqHistSeqr        |           0      0.00%      0.00% |    87882106    100.00%    100.00% |           0      0.00%    100.00% |           0      0.00%    100.00% |           0      0.00%    100.00% |           0      0.00%    100.00% |           0      0.00%    100.00% |           0      0.00%    100.00% |           0      0.00%    100.00% |           0      0.00%    100.00% (Unspecified)
system.ruby.m_outstandReqHistSeqr::total     87882106                       (Unspecified)
system.ruby.m_latencyHistSeqr::bucket_size            1                       (Unspecified)
system.ruby.m_latencyHistSeqr::max_bucket            9                       (Unspecified)
system.ruby.m_latencyHistSeqr::samples       87882095                       (Unspecified)
system.ruby.m_latencyHistSeqr::mean                 1                       (Unspecified)
system.ruby.m_latencyHistSeqr::gmean                1                       (Unspecified)
system.ruby.m_latencyHistSeqr            |           0      0.00%      0.00% |    87882095    100.00%    100.00% |           0      0.00%    100.00% |           0      0.00%    100.00% |           0      0.00%    100.00% |           0      0.00%    100.00% |           0      0.00%    100.00% |           0      0.00%    100.00% |           0      0.00%    100.00% |           0      0.00%    100.00% (Unspecified)
system.ruby.m_latencyHistSeqr::total         87882095                       (Unspecified)
system.ruby.m_hitLatencyHistSeqr::bucket_size            1                       (Unspecified)
system.ruby.m_hitLatencyHistSeqr::max_bucket            9                       (Unspecified)
system.ruby.m_hitLatencyHistSeqr::samples     87882095                       (Unspecified)
system.ruby.m_hitLatencyHistSeqr::mean              1                       (Unspecified)
system.ruby.m_hitLatencyHistSeqr::gmean             1                       (Unspecified)
system.ruby.m_hitLatencyHistSeqr         |           0      0.00%      0.00% |    87882095    100.00%    100.00% |           0      0.00%    100.00% |           0      0.00%    100.00% |           0      0.00%    100.00% |           0      0.00%    100.00% |           0      0.00%    100.00% |           0      0.00%    100.00% |           0      0.00%    100.00% |           0      0.00%    100.00% (Unspecified)
system.ruby.m_hitLatencyHistSeqr::total      87882095                       (Unspecified)
system.ruby.Directory_Controller.Receive_Request |      457157      1.56%      1.56% |      457557      1.56%      3.12% |      457589      1.56%      4.69% |      458370      1.56%      6.25% |      457533      1.56%      7.81% |      458002      1.56%      9.38% |      455907      1.56%     10.93% |      458227      1.56%     12.50% |      458024      1.56%     14.06% |      457631      1.56%     15.62% |      457877      1.56%     17.19% |      458078      1.56%     18.75% |      457901      1.56%     20.31% |      456896      1.56%     21.87% |      457215      1.56%     23.43% |      458210      1.56%     25.00% |      456493      1.56%     26.56% |      458469      1.57%     28.12% |      458623      1.57%     29.69% |      457593      1.56%     31.25% |      457922      1.56%     32.81% |      456791      1.56%     34.37% |      457570      1.56%     35.94% |      457320      1.56%     37.50% |      457042      1.56%     39.06% |      456273      1.56%     40.61% |      458468      1.57%     42.18% |      456525      1.56%     43.74% |      458307      1.56%     45.30% |      456832      1.56%     46.86% |      459095      1.57%     48.43% |      456536      1.56%     49.99% |      457577      1.56%     51.55% |      457987      1.56%     53.12% |      458622      1.57%     54.68% |      458748      1.57%     56.25% |      458205      1.56%     57.81% |      458471      1.57%     59.38% |      456971      1.56%     60.94% |      457989      1.56%     62.50% |      457510      1.56%     64.06% |      456634      1.56%     65.62% |      458380      1.56%     67.19% |      458127      1.56%     68.75% |      458280      1.56%     70.31% |      458075      1.56%     71.88% |      456903      1.56%     73.44% |      458190      1.56%     75.00% |      456960      1.56%     76.56% |      458526      1.57%     78.13% |      458506      1.57%     79.69% |      457333      1.56%     81.26% |      457392      1.56%     82.82% |      457531      1.56%     84.38% |      457494      1.56%     85.94% |      456924      1.56%     87.50% |      457581      1.56%     89.06% |      456810      1.56%     90.62% |      457297      1.56%     92.18% |      457796      1.56%     93.75% |      457791      1.56%     95.31% |      457711      1.56%     96.87% |      458003      1.56%     98.44% |      458035      1.56%    100.00% (Unspecified)
system.ruby.Directory_Controller.Receive_Request::total     29290392                       (Unspecified)
system.ruby.Directory_Controller.Receive_Forward |      458049      1.56%      1.56% |      457567      1.56%      3.13% |      458022      1.56%      4.69% |      457759      1.56%      6.25% |      458341      1.56%      7.82% |      456702      1.56%      9.38% |      457419      1.56%     10.94% |      457454      1.56%     12.50% |      458655      1.57%     14.06% |      457244      1.56%     15.62% |      458460      1.56%     17.19% |      457053      1.56%     18.75% |      456455      1.56%     20.31% |      459438      1.57%     21.88% |      457595      1.56%     23.44% |      458665      1.57%     25.00% |      458188      1.56%     26.57% |      457728      1.56%     28.13% |      457073      1.56%     29.69% |      458023      1.56%     31.25% |      457873      1.56%     32.82% |      457762      1.56%     34.38% |      456096      1.56%     35.94% |      457271      1.56%     37.50% |      458192      1.56%     39.06% |      457983      1.56%     40.63% |      457267      1.56%     42.19% |      456707      1.56%     43.75% |      456646      1.56%     45.30% |      457997      1.56%     46.87% |      457819      1.56%     48.43% |      457951      1.56%     49.99% |      457422      1.56%     51.55% |      457501      1.56%     53.12% |      458439      1.56%     54.68% |      456740      1.56%     56.24% |      457101      1.56%     57.80% |      459047      1.57%     59.37% |      458862      1.57%     60.93% |      457917      1.56%     62.50% |      458534      1.57%     64.06% |      457543      1.56%     65.62% |      458429      1.56%     67.19% |      457426      1.56%     68.75% |      457337      1.56%     70.31% |      458421      1.56%     71.88% |      457328      1.56%     73.44% |      456942      1.56%     75.00% |      457346      1.56%     76.56% |      458214      1.56%     78.12% |      457074      1.56%     79.68% |      458870      1.57%     81.25% |      456873      1.56%     82.81% |      457838      1.56%     84.37% |      457557      1.56%     85.93% |      457054      1.56%     87.49% |      458111      1.56%     89.06% |      456974      1.56%     90.62% |      458990      1.57%     92.18% |      457155      1.56%     93.75% |      457754      1.56%     95.31% |      459779      1.57%     96.88% |      458005      1.56%     98.44% |      456727      1.56%    100.00% (Unspecified)
system.ruby.Directory_Controller.Receive_Forward::total     29294764                       (Unspecified)
system.ruby.Directory_Controller.Receive_Response |      187884      1.57%      1.57% |      187439      1.56%      3.13% |      186803      1.56%      4.69% |      187251      1.56%      6.25% |      187223      1.56%      7.81% |      187542      1.56%      9.37% |      186563      1.56%     10.93% |      187665      1.56%     12.49% |      187086      1.56%     14.05% |      187097      1.56%     15.61% |      186716      1.56%     17.17% |      187850      1.57%     18.73% |      187438      1.56%     20.29% |      187439      1.56%     21.86% |      187323      1.56%     23.42% |      187423      1.56%     24.98% |      186885      1.56%     26.54% |      187376      1.56%     28.10% |      188276      1.57%     29.67% |      187050      1.56%     31.23% |      187116      1.56%     32.79% |      187272      1.56%     34.35% |      187588      1.56%     35.91% |      187963      1.57%     37.48% |      187036      1.56%     39.04% |      187842      1.57%     40.61% |      187831      1.57%     42.17% |      186856      1.56%     43.73% |      187219      1.56%     45.29% |      187716      1.56%     46.85% |      187412      1.56%     48.42% |      186779      1.56%     49.97% |      188057      1.57%     51.54% |      187159      1.56%     53.10% |      186944      1.56%     54.66% |      187959      1.57%     56.23% |      187777      1.57%     57.79% |      187321      1.56%     59.35% |      187438      1.56%     60.92% |      187360      1.56%     62.48% |      188215      1.57%     64.05% |      187671      1.56%     65.61% |      188274      1.57%     67.18% |      187347      1.56%     68.74% |      187922      1.57%     70.31% |      188165      1.57%     71.88% |      187391      1.56%     73.44% |      186862      1.56%     75.00% |      187082      1.56%     76.56% |      187316      1.56%     78.12% |      186887      1.56%     79.68% |      187980      1.57%     81.24% |      187699      1.56%     82.81% |      186739      1.56%     84.36% |      187439      1.56%     85.93% |      188129      1.57%     87.49% |      187526      1.56%     89.06% |      188056      1.57%     90.63% |      187886      1.57%     92.19% |      187271      1.56%     93.75% |      186913      1.56%     95.31% |      187380      1.56%     96.87% |      187550      1.56%     98.44% |      187555      1.56%    100.00% (Unspecified)
system.ruby.Directory_Controller.Receive_Response::total     11996229                       (Unspecified)
system.ruby.Directory_Controller.I.Receive_Request |      457157      1.56%      1.56% |      457557      1.56%      3.12% |      457589      1.56%      4.69% |      458370      1.56%      6.25% |      457533      1.56%      7.81% |      458002      1.56%      9.38% |      455907      1.56%     10.93% |      458227      1.56%     12.50% |      458024      1.56%     14.06% |      457631      1.56%     15.62% |      457877      1.56%     17.19% |      458078      1.56%     18.75% |      457901      1.56%     20.31% |      456896      1.56%     21.87% |      457215      1.56%     23.43% |      458210      1.56%     25.00% |      456493      1.56%     26.56% |      458469      1.57%     28.12% |      458623      1.57%     29.69% |      457593      1.56%     31.25% |      457922      1.56%     32.81% |      456791      1.56%     34.37% |      457570      1.56%     35.94% |      457320      1.56%     37.50% |      457042      1.56%     39.06% |      456273      1.56%     40.61% |      458468      1.57%     42.18% |      456525      1.56%     43.74% |      458307      1.56%     45.30% |      456832      1.56%     46.86% |      459095      1.57%     48.43% |      456536      1.56%     49.99% |      457577      1.56%     51.55% |      457987      1.56%     53.12% |      458622      1.57%     54.68% |      458748      1.57%     56.25% |      458205      1.56%     57.81% |      458471      1.57%     59.38% |      456971      1.56%     60.94% |      457989      1.56%     62.50% |      457510      1.56%     64.06% |      456634      1.56%     65.62% |      458380      1.56%     67.19% |      458127      1.56%     68.75% |      458280      1.56%     70.31% |      458075      1.56%     71.88% |      456903      1.56%     73.44% |      458190      1.56%     75.00% |      456960      1.56%     76.56% |      458526      1.57%     78.13% |      458506      1.57%     79.69% |      457333      1.56%     81.26% |      457392      1.56%     82.82% |      457531      1.56%     84.38% |      457494      1.56%     85.94% |      456924      1.56%     87.50% |      457581      1.56%     89.06% |      456810      1.56%     90.62% |      457297      1.56%     92.18% |      457796      1.56%     93.75% |      457791      1.56%     95.31% |      457711      1.56%     96.87% |      458003      1.56%     98.44% |      458035      1.56%    100.00% (Unspecified)
system.ruby.Directory_Controller.I.Receive_Request::total     29290392                       (Unspecified)
system.ruby.Directory_Controller.I.Receive_Forward |      458049      1.56%      1.56% |      457567      1.56%      3.13% |      458022      1.56%      4.69% |      457759      1.56%      6.25% |      458341      1.56%      7.82% |      456702      1.56%      9.38% |      457419      1.56%     10.94% |      457454      1.56%     12.50% |      458655      1.57%     14.06% |      457244      1.56%     15.62% |      458460      1.56%     17.19% |      457053      1.56%     18.75% |      456455      1.56%     20.31% |      459438      1.57%     21.88% |      457595      1.56%     23.44% |      458665      1.57%     25.00% |      458188      1.56%     26.57% |      457728      1.56%     28.13% |      457073      1.56%     29.69% |      458023      1.56%     31.25% |      457873      1.56%     32.82% |      457762      1.56%     34.38% |      456096      1.56%     35.94% |      457271      1.56%     37.50% |      458192      1.56%     39.06% |      457983      1.56%     40.63% |      457267      1.56%     42.19% |      456707      1.56%     43.75% |      456646      1.56%     45.30% |      457997      1.56%     46.87% |      457819      1.56%     48.43% |      457951      1.56%     49.99% |      457422      1.56%     51.55% |      457501      1.56%     53.12% |      458439      1.56%     54.68% |      456740      1.56%     56.24% |      457101      1.56%     57.80% |      459047      1.57%     59.37% |      458862      1.57%     60.93% |      457917      1.56%     62.50% |      458534      1.57%     64.06% |      457543      1.56%     65.62% |      458429      1.56%     67.19% |      457426      1.56%     68.75% |      457337      1.56%     70.31% |      458421      1.56%     71.88% |      457328      1.56%     73.44% |      456942      1.56%     75.00% |      457346      1.56%     76.56% |      458214      1.56%     78.12% |      457074      1.56%     79.68% |      458870      1.57%     81.25% |      456873      1.56%     82.81% |      457838      1.56%     84.37% |      457557      1.56%     85.93% |      457054      1.56%     87.49% |      458111      1.56%     89.06% |      456974      1.56%     90.62% |      458990      1.57%     92.18% |      457155      1.56%     93.75% |      457754      1.56%     95.31% |      459779      1.57%     96.88% |      458005      1.56%     98.44% |      456727      1.56%    100.00% (Unspecified)
system.ruby.Directory_Controller.I.Receive_Forward::total     29294764                       (Unspecified)
system.ruby.Directory_Controller.I.Receive_Response |      187884      1.57%      1.57% |      187439      1.56%      3.13% |      186803      1.56%      4.69% |      187251      1.56%      6.25% |      187223      1.56%      7.81% |      187542      1.56%      9.37% |      186563      1.56%     10.93% |      187665      1.56%     12.49% |      187086      1.56%     14.05% |      187097      1.56%     15.61% |      186716      1.56%     17.17% |      187850      1.57%     18.73% |      187438      1.56%     20.29% |      187439      1.56%     21.86% |      187323      1.56%     23.42% |      187423      1.56%     24.98% |      186885      1.56%     26.54% |      187376      1.56%     28.10% |      188276      1.57%     29.67% |      187050      1.56%     31.23% |      187116      1.56%     32.79% |      187272      1.56%     34.35% |      187588      1.56%     35.91% |      187963      1.57%     37.48% |      187036      1.56%     39.04% |      187842      1.57%     40.61% |      187831      1.57%     42.17% |      186856      1.56%     43.73% |      187219      1.56%     45.29% |      187716      1.56%     46.85% |      187412      1.56%     48.42% |      186779      1.56%     49.97% |      188057      1.57%     51.54% |      187159      1.56%     53.10% |      186944      1.56%     54.66% |      187959      1.57%     56.23% |      187777      1.57%     57.79% |      187321      1.56%     59.35% |      187438      1.56%     60.92% |      187360      1.56%     62.48% |      188215      1.57%     64.05% |      187671      1.56%     65.61% |      188274      1.57%     67.18% |      187347      1.56%     68.74% |      187922      1.57%     70.31% |      188165      1.57%     71.88% |      187391      1.56%     73.44% |      186862      1.56%     75.00% |      187082      1.56%     76.56% |      187316      1.56%     78.12% |      186887      1.56%     79.68% |      187980      1.57%     81.24% |      187699      1.56%     82.81% |      186739      1.56%     84.36% |      187439      1.56%     85.93% |      188129      1.57%     87.49% |      187526      1.56%     89.06% |      188056      1.57%     90.63% |      187886      1.57%     92.19% |      187271      1.56%     93.75% |      186913      1.56%     95.31% |      187380      1.56%     96.87% |      187550      1.56%     98.44% |      187555      1.56%    100.00% (Unspecified)
system.ruby.Directory_Controller.I.Receive_Response::total     11996229                       (Unspecified)
system.ruby.L1Cache_Controller.Request   |      458016      1.56%      1.56% |      458522      1.57%      3.13% |      458214      1.56%      4.69% |      457284      1.56%      6.25% |      459343      1.57%      7.82% |      457233      1.56%      9.38% |      455929      1.56%     10.94% |      458925      1.57%     12.51% |      457839      1.56%     14.07% |      459233      1.57%     15.64% |      457525      1.56%     17.20% |      456311      1.56%     18.76% |      457780      1.56%     20.32% |      456946      1.56%     21.88% |      457316      1.56%     23.44% |      458023      1.56%     25.01% |      458523      1.57%     26.57% |      457093      1.56%     28.13% |      457619      1.56%     29.69% |      456683      1.56%     31.25% |      457800      1.56%     32.82% |      457736      1.56%     34.38% |      457136      1.56%     35.94% |      458236      1.56%     37.50% |      457910      1.56%     39.07% |      458215      1.56%     40.63% |      457432      1.56%     42.19% |      458287      1.56%     43.76% |      457237      1.56%     45.32% |      457829      1.56%     46.88% |      457043      1.56%     48.44% |      457573      1.56%     50.01% |      457558      1.56%     51.57% |      458329      1.56%     53.13% |      456975      1.56%     54.69% |      457905      1.56%     56.26% |      457335      1.56%     57.82% |      456630      1.56%     59.38% |      458671      1.57%     60.94% |      457797      1.56%     62.50% |      457164      1.56%     64.07% |      457286      1.56%     65.63% |      457053      1.56%     67.19% |      457758      1.56%     68.75% |      457115      1.56%     70.31% |      458308      1.56%     71.88% |      456694      1.56%     73.43% |      457660      1.56%     75.00% |      455708      1.56%     76.55% |      456788      1.56%     78.11% |      458060      1.56%     79.68% |      458519      1.57%     81.24% |      458065      1.56%     82.81% |      456864      1.56%     84.37% |      458178      1.56%     85.93% |      457822      1.56%     87.49% |      458001      1.56%     89.06% |      458294      1.56%     90.62% |      459088      1.57%     92.19% |      457407      1.56%     93.75% |      456523      1.56%     95.31% |      457695      1.56%     96.87% |      458146      1.56%     98.44% |      458338      1.56%    100.00% (Unspecified)
system.ruby.L1Cache_Controller.Request::total     29290525                       (Unspecified)
system.ruby.L1Cache_Controller.Forward   |      457669      1.56%      1.56% |      458003      1.56%      3.13% |      457245      1.56%      4.69% |      457727      1.56%      6.25% |      458152      1.56%      7.81% |      457329      1.56%      9.37% |      458102      1.56%     10.94% |      457274      1.56%     12.50% |      457251      1.56%     14.06% |      457884      1.56%     15.62% |      458175      1.56%     17.19% |      458520      1.57%     18.75% |      457912      1.56%     20.31% |      457570      1.56%     21.88% |      457323      1.56%     23.44% |      457481      1.56%     25.00% |      457687      1.56%     26.56% |      457345      1.56%     28.12% |      459353      1.57%     29.69% |      457821      1.56%     31.25% |      458197      1.56%     32.82% |      458271      1.56%     34.38% |      457598      1.56%     35.94% |      457282      1.56%     37.51% |      457872      1.56%     39.07% |      457718      1.56%     40.63% |      458414      1.56%     42.20% |      459154      1.57%     43.76% |      456847      1.56%     45.32% |      456756      1.56%     46.88% |      457071      1.56%     48.44% |      457025      1.56%     50.00% |      457965      1.56%     51.57% |      457516      1.56%     53.13% |      457554      1.56%     54.69% |      458890      1.57%     56.26% |      458897      1.57%     57.82% |      458659      1.57%     59.39% |      457793      1.56%     60.95% |      456988      1.56%     62.51% |      457659      1.56%     64.07% |      458417      1.56%     65.64% |      457525      1.56%     67.20% |      457556      1.56%     68.76% |      457476      1.56%     70.32% |      457061      1.56%     71.88% |      457485      1.56%     73.44% |      457902      1.56%     75.01% |      457349      1.56%     76.57% |      458767      1.57%     78.13% |      457574      1.56%     79.70% |      458205      1.56%     81.26% |      457599      1.56%     82.82% |      458238      1.56%     84.39% |      458699      1.57%     85.95% |      456772      1.56%     87.51% |      457047      1.56%     89.07% |      455854      1.56%     90.63% |      457698      1.56%     92.19% |      457138      1.56%     93.75% |      458531      1.57%     95.32% |      456510      1.56%     96.87% |      458058      1.56%     98.44% |      457450      1.56%    100.00% (Unspecified)
system.ruby.L1Cache_Controller.Forward::total     29294860                       (Unspecified)
system.ruby.L1Cache_Controller.Response  |      457164      1.56%      1.56% |      457148      1.56%      3.12% |      457846      1.56%      4.68% |      457318      1.56%      6.24% |      459356      1.57%      7.81% |      458264      1.56%      9.38% |      457835      1.56%     10.94% |      457278      1.56%     12.50% |      457193      1.56%     14.06% |      456804      1.56%     15.62% |      458053      1.56%     17.18% |      457528      1.56%     18.75% |      457606      1.56%     20.31% |      458014      1.56%     21.87% |      457310      1.56%     23.43% |      457536      1.56%     24.99% |      458923      1.57%     26.56% |      457423      1.56%     28.12% |      456281      1.56%     29.68% |      457390      1.56%     31.24% |      457749      1.56%     32.80% |      458677      1.57%     34.37% |      458112      1.56%     35.93% |      457882      1.56%     37.49% |      457761      1.56%     39.06% |      458699      1.57%     40.62% |      457044      1.56%     42.18% |      459020      1.57%     43.75% |      458279      1.56%     45.31% |      457569      1.56%     46.88% |      458187      1.56%     48.44% |      458711      1.57%     50.01% |      457622      1.56%     51.57% |      457391      1.56%     53.13% |      457270      1.56%     54.69% |      458093      1.56%     56.25% |      456972      1.56%     57.81% |      458998      1.57%     59.38% |      456593      1.56%     60.94% |      457703      1.56%     62.50% |      457528      1.56%     64.06% |      457332      1.56%     65.62% |      457687      1.56%     67.19% |      457962      1.56%     68.75% |      457109      1.56%     70.31% |      456902      1.56%     71.87% |      457936      1.56%     73.43% |      457447      1.56%     74.99% |      458017      1.56%     76.56% |      457816      1.56%     78.12% |      457820      1.56%     79.68% |      458849      1.57%     81.25% |      459516      1.57%     82.82% |      457666      1.56%     84.38% |      457201      1.56%     85.94% |      457765      1.56%     87.50% |      458134      1.56%     89.07% |      457625      1.56%     90.63% |      457186      1.56%     92.19% |      458447      1.56%     93.75% |      457468      1.56%     95.31% |      456619      1.56%     96.87% |      458046      1.56%     98.44% |      458030      1.56%    100.00% (Unspecified)
system.ruby.L1Cache_Controller.Response::total     29296710                       (Unspecified)
system.ruby.L1Cache_Controller.I.Request |      458016      1.56%      1.56% |      458522      1.57%      3.13% |      458214      1.56%      4.69% |      457284      1.56%      6.25% |      459343      1.57%      7.82% |      457233      1.56%      9.38% |      455929      1.56%     10.94% |      458925      1.57%     12.51% |      457839      1.56%     14.07% |      459233      1.57%     15.64% |      457525      1.56%     17.20% |      456311      1.56%     18.76% |      457780      1.56%     20.32% |      456946      1.56%     21.88% |      457316      1.56%     23.44% |      458023      1.56%     25.01% |      458523      1.57%     26.57% |      457093      1.56%     28.13% |      457619      1.56%     29.69% |      456683      1.56%     31.25% |      457800      1.56%     32.82% |      457736      1.56%     34.38% |      457136      1.56%     35.94% |      458236      1.56%     37.50% |      457910      1.56%     39.07% |      458215      1.56%     40.63% |      457432      1.56%     42.19% |      458287      1.56%     43.76% |      457237      1.56%     45.32% |      457829      1.56%     46.88% |      457043      1.56%     48.44% |      457573      1.56%     50.01% |      457558      1.56%     51.57% |      458329      1.56%     53.13% |      456975      1.56%     54.69% |      457905      1.56%     56.26% |      457335      1.56%     57.82% |      456630      1.56%     59.38% |      458671      1.57%     60.94% |      457797      1.56%     62.50% |      457164      1.56%     64.07% |      457286      1.56%     65.63% |      457053      1.56%     67.19% |      457758      1.56%     68.75% |      457115      1.56%     70.31% |      458308      1.56%     71.88% |      456694      1.56%     73.43% |      457660      1.56%     75.00% |      455708      1.56%     76.55% |      456788      1.56%     78.11% |      458060      1.56%     79.68% |      458519      1.57%     81.24% |      458065      1.56%     82.81% |      456864      1.56%     84.37% |      458178      1.56%     85.93% |      457822      1.56%     87.49% |      458001      1.56%     89.06% |      458294      1.56%     90.62% |      459088      1.57%     92.19% |      457407      1.56%     93.75% |      456523      1.56%     95.31% |      457695      1.56%     96.87% |      458146      1.56%     98.44% |      458338      1.56%    100.00% (Unspecified)
system.ruby.L1Cache_Controller.I.Request::total     29290525                       (Unspecified)
system.ruby.L1Cache_Controller.I.Forward |      457669      1.56%      1.56% |      458003      1.56%      3.13% |      457245      1.56%      4.69% |      457727      1.56%      6.25% |      458152      1.56%      7.81% |      457329      1.56%      9.37% |      458102      1.56%     10.94% |      457274      1.56%     12.50% |      457251      1.56%     14.06% |      457884      1.56%     15.62% |      458175      1.56%     17.19% |      458520      1.57%     18.75% |      457912      1.56%     20.31% |      457570      1.56%     21.88% |      457323      1.56%     23.44% |      457481      1.56%     25.00% |      457687      1.56%     26.56% |      457345      1.56%     28.12% |      459353      1.57%     29.69% |      457821      1.56%     31.25% |      458197      1.56%     32.82% |      458271      1.56%     34.38% |      457598      1.56%     35.94% |      457282      1.56%     37.51% |      457872      1.56%     39.07% |      457718      1.56%     40.63% |      458414      1.56%     42.20% |      459154      1.57%     43.76% |      456847      1.56%     45.32% |      456756      1.56%     46.88% |      457071      1.56%     48.44% |      457025      1.56%     50.00% |      457965      1.56%     51.57% |      457516      1.56%     53.13% |      457554      1.56%     54.69% |      458890      1.57%     56.26% |      458897      1.57%     57.82% |      458659      1.57%     59.39% |      457793      1.56%     60.95% |      456988      1.56%     62.51% |      457659      1.56%     64.07% |      458417      1.56%     65.64% |      457525      1.56%     67.20% |      457556      1.56%     68.76% |      457476      1.56%     70.32% |      457061      1.56%     71.88% |      457485      1.56%     73.44% |      457902      1.56%     75.01% |      457349      1.56%     76.57% |      458767      1.57%     78.13% |      457574      1.56%     79.70% |      458205      1.56%     81.26% |      457599      1.56%     82.82% |      458238      1.56%     84.39% |      458699      1.57%     85.95% |      456772      1.56%     87.51% |      457047      1.56%     89.07% |      455854      1.56%     90.63% |      457698      1.56%     92.19% |      457138      1.56%     93.75% |      458531      1.57%     95.32% |      456510      1.56%     96.87% |      458058      1.56%     98.44% |      457450      1.56%    100.00% (Unspecified)
system.ruby.L1Cache_Controller.I.Forward::total     29294860                       (Unspecified)
system.ruby.L1Cache_Controller.I.Response |      457164      1.56%      1.56% |      457148      1.56%      3.12% |      457846      1.56%      4.68% |      457318      1.56%      6.24% |      459356      1.57%      7.81% |      458264      1.56%      9.38% |      457835      1.56%     10.94% |      457278      1.56%     12.50% |      457193      1.56%     14.06% |      456804      1.56%     15.62% |      458053      1.56%     17.18% |      457528      1.56%     18.75% |      457606      1.56%     20.31% |      458014      1.56%     21.87% |      457310      1.56%     23.43% |      457536      1.56%     24.99% |      458923      1.57%     26.56% |      457423      1.56%     28.12% |      456281      1.56%     29.68% |      457390      1.56%     31.24% |      457749      1.56%     32.80% |      458677      1.57%     34.37% |      458112      1.56%     35.93% |      457882      1.56%     37.49% |      457761      1.56%     39.06% |      458699      1.57%     40.62% |      457044      1.56%     42.18% |      459020      1.57%     43.75% |      458279      1.56%     45.31% |      457569      1.56%     46.88% |      458187      1.56%     48.44% |      458711      1.57%     50.01% |      457622      1.56%     51.57% |      457391      1.56%     53.13% |      457270      1.56%     54.69% |      458093      1.56%     56.25% |      456972      1.56%     57.81% |      458998      1.57%     59.38% |      456593      1.56%     60.94% |      457703      1.56%     62.50% |      457528      1.56%     64.06% |      457332      1.56%     65.62% |      457687      1.56%     67.19% |      457962      1.56%     68.75% |      457109      1.56%     70.31% |      456902      1.56%     71.87% |      457936      1.56%     73.43% |      457447      1.56%     74.99% |      458017      1.56%     76.56% |      457816      1.56%     78.12% |      457820      1.56%     79.68% |      458849      1.57%     81.25% |      459516      1.57%     82.82% |      457666      1.56%     84.38% |      457201      1.56%     85.94% |      457765      1.56%     87.50% |      458134      1.56%     89.07% |      457625      1.56%     90.63% |      457186      1.56%     92.19% |      458447      1.56%     93.75% |      457468      1.56%     95.31% |      456619      1.56%     96.87% |      458046      1.56%     98.44% |      458030      1.56%    100.00% (Unspecified)
system.ruby.L1Cache_Controller.I.Response::total     29296710                       (Unspecified)
system.ruby.RequestType.LD.latency_hist_seqr::bucket_size            1                       (Unspecified)
system.ruby.RequestType.LD.latency_hist_seqr::max_bucket            9                       (Unspecified)
system.ruby.RequestType.LD.latency_hist_seqr::samples     29290525                       (Unspecified)
system.ruby.RequestType.LD.latency_hist_seqr::mean            1                       (Unspecified)
system.ruby.RequestType.LD.latency_hist_seqr::gmean            1                       (Unspecified)
system.ruby.RequestType.LD.latency_hist_seqr |           0      0.00%      0.00% |    29290525    100.00%    100.00% |           0      0.00%    100.00% |           0      0.00%    100.00% |           0      0.00%    100.00% |           0      0.00%    100.00% |           0      0.00%    100.00% |           0      0.00%    100.00% |           0      0.00%    100.00% |           0      0.00%    100.00% (Unspecified)
system.ruby.RequestType.LD.latency_hist_seqr::total     29290525                       (Unspecified)
system.ruby.RequestType.LD.hit_latency_hist_seqr::bucket_size            1                       (Unspecified)
system.ruby.RequestType.LD.hit_latency_hist_seqr::max_bucket            9                       (Unspecified)
system.ruby.RequestType.LD.hit_latency_hist_seqr::samples     29290525                       (Unspecified)
system.ruby.RequestType.LD.hit_latency_hist_seqr::mean            1                       (Unspecified)
system.ruby.RequestType.LD.hit_latency_hist_seqr::gmean            1                       (Unspecified)
system.ruby.RequestType.LD.hit_latency_hist_seqr |           0      0.00%      0.00% |    29290525    100.00%    100.00% |           0      0.00%    100.00% |           0      0.00%    100.00% |           0      0.00%    100.00% |           0      0.00%    100.00% |           0      0.00%    100.00% |           0      0.00%    100.00% |           0      0.00%    100.00% |           0      0.00%    100.00% (Unspecified)
system.ruby.RequestType.LD.hit_latency_hist_seqr::total     29290525                       (Unspecified)
system.ruby.RequestType.ST.latency_hist_seqr::bucket_size            1                       (Unspecified)
system.ruby.RequestType.ST.latency_hist_seqr::max_bucket            9                       (Unspecified)
system.ruby.RequestType.ST.latency_hist_seqr::samples     29296710                       (Unspecified)
system.ruby.RequestType.ST.latency_hist_seqr::mean            1                       (Unspecified)
system.ruby.RequestType.ST.latency_hist_seqr::gmean            1                       (Unspecified)
system.ruby.RequestType.ST.latency_hist_seqr |           0      0.00%      0.00% |    29296710    100.00%    100.00% |           0      0.00%    100.00% |           0      0.00%    100.00% |           0      0.00%    100.00% |           0      0.00%    100.00% |           0      0.00%    100.00% |           0      0.00%    100.00% |           0      0.00%    100.00% |           0      0.00%    100.00% (Unspecified)
system.ruby.RequestType.ST.latency_hist_seqr::total     29296710                       (Unspecified)
system.ruby.RequestType.ST.hit_latency_hist_seqr::bucket_size            1                       (Unspecified)
system.ruby.RequestType.ST.hit_latency_hist_seqr::max_bucket            9                       (Unspecified)
system.ruby.RequestType.ST.hit_latency_hist_seqr::samples     29296710                       (Unspecified)
system.ruby.RequestType.ST.hit_latency_hist_seqr::mean            1                       (Unspecified)
system.ruby.RequestType.ST.hit_latency_hist_seqr::gmean            1                       (Unspecified)
system.ruby.RequestType.ST.hit_latency_hist_seqr |           0      0.00%      0.00% |    29296710    100.00%    100.00% |           0      0.00%    100.00% |           0      0.00%    100.00% |           0      0.00%    100.00% |           0      0.00%    100.00% |           0      0.00%    100.00% |           0      0.00%    100.00% |           0      0.00%    100.00% |           0      0.00%    100.00% (Unspecified)
system.ruby.RequestType.ST.hit_latency_hist_seqr::total     29296710                       (Unspecified)
system.ruby.RequestType.IFETCH.latency_hist_seqr::bucket_size            1                       (Unspecified)
system.ruby.RequestType.IFETCH.latency_hist_seqr::max_bucket            9                       (Unspecified)
system.ruby.RequestType.IFETCH.latency_hist_seqr::samples     29294860                       (Unspecified)
system.ruby.RequestType.IFETCH.latency_hist_seqr::mean            1                       (Unspecified)
system.ruby.RequestType.IFETCH.latency_hist_seqr::gmean            1                       (Unspecified)
system.ruby.RequestType.IFETCH.latency_hist_seqr |           0      0.00%      0.00% |    29294860    100.00%    100.00% |           0      0.00%    100.00% |           0      0.00%    100.00% |           0      0.00%    100.00% |           0      0.00%    100.00% |           0      0.00%    100.00% |           0      0.00%    100.00% |           0      0.00%    100.00% |           0      0.00%    100.00% (Unspecified)
system.ruby.RequestType.IFETCH.latency_hist_seqr::total     29294860                       (Unspecified)
system.ruby.RequestType.IFETCH.hit_latency_hist_seqr::bucket_size            1                       (Unspecified)
system.ruby.RequestType.IFETCH.hit_latency_hist_seqr::max_bucket            9                       (Unspecified)
system.ruby.RequestType.IFETCH.hit_latency_hist_seqr::samples     29294860                       (Unspecified)
system.ruby.RequestType.IFETCH.hit_latency_hist_seqr::mean            1                       (Unspecified)
system.ruby.RequestType.IFETCH.hit_latency_hist_seqr::gmean            1                       (Unspecified)
system.ruby.RequestType.IFETCH.hit_latency_hist_seqr |           0      0.00%      0.00% |    29294860    100.00%    100.00% |           0      0.00%    100.00% |           0      0.00%    100.00% |           0      0.00%    100.00% |           0      0.00%    100.00% |           0      0.00%    100.00% |           0      0.00%    100.00% |           0      0.00%    100.00% |           0      0.00%    100.00% (Unspecified)
system.ruby.RequestType.IFETCH.hit_latency_hist_seqr::total     29294860                       (Unspecified)
system.ruby.clk_domain.clock                      250                       # Clock period in ticks (Tick)
system.ruby.dir_cntrl0.forwardToDir.m_msg_count       458049                       # Number of messages passed the buffer (Count)
system.ruby.dir_cntrl0.forwardToDir.m_buf_msgs     0.053324                       # Average number of messages in buffer ((Count/Tick))
system.ruby.dir_cntrl0.power_state.pwrStateResidencyTicks::UNDEFINED   2147483750                       # Cumulative time (in ticks) in various power states (Tick)
system.ruby.dir_cntrl0.requestToDir.m_msg_count       457157                       # Number of messages passed the buffer (Count)
system.ruby.dir_cntrl0.requestToDir.m_buf_msgs     0.053220                       # Average number of messages in buffer ((Count/Tick))
system.ruby.dir_cntrl0.responseToDir.m_msg_count       187884                       # Number of messages passed the buffer (Count)
system.ruby.dir_cntrl0.responseToDir.m_buf_msgs     0.021873                       # Average number of messages in buffer ((Count/Tick))
system.ruby.dir_cntrl1.forwardToDir.m_msg_count       457567                       # Number of messages passed the buffer (Count)
system.ruby.dir_cntrl1.forwardToDir.m_buf_msgs     0.053268                       # Average number of messages in buffer ((Count/Tick))
system.ruby.dir_cntrl1.power_state.pwrStateResidencyTicks::UNDEFINED   2147483750                       # Cumulative time (in ticks) in various power states (Tick)
system.ruby.dir_cntrl1.requestToDir.m_msg_count       457557                       # Number of messages passed the buffer (Count)
system.ruby.dir_cntrl1.requestToDir.m_buf_msgs     0.053267                       # Average number of messages in buffer ((Count/Tick))
system.ruby.dir_cntrl1.responseToDir.m_msg_count       187439                       # Number of messages passed the buffer (Count)
system.ruby.dir_cntrl1.responseToDir.m_buf_msgs     0.021821                       # Average number of messages in buffer ((Count/Tick))
system.ruby.dir_cntrl10.forwardToDir.m_msg_count       458460                       # Number of messages passed the buffer (Count)
system.ruby.dir_cntrl10.forwardToDir.m_buf_msgs     0.053372                       # Average number of messages in buffer ((Count/Tick))
system.ruby.dir_cntrl10.power_state.pwrStateResidencyTicks::UNDEFINED   2147483750                       # Cumulative time (in ticks) in various power states (Tick)
system.ruby.dir_cntrl10.requestToDir.m_msg_count       457877                       # Number of messages passed the buffer (Count)
system.ruby.dir_cntrl10.requestToDir.m_buf_msgs     0.053304                       # Average number of messages in buffer ((Count/Tick))
system.ruby.dir_cntrl10.responseToDir.m_msg_count       186716                       # Number of messages passed the buffer (Count)
system.ruby.dir_cntrl10.responseToDir.m_buf_msgs     0.021737                       # Average number of messages in buffer ((Count/Tick))
system.ruby.dir_cntrl11.forwardToDir.m_msg_count       457053                       # Number of messages passed the buffer (Count)
system.ruby.dir_cntrl11.forwardToDir.m_buf_msgs     0.053208                       # Average number of messages in buffer ((Count/Tick))
system.ruby.dir_cntrl11.power_state.pwrStateResidencyTicks::UNDEFINED   2147483750                       # Cumulative time (in ticks) in various power states (Tick)
system.ruby.dir_cntrl11.requestToDir.m_msg_count       458078                       # Number of messages passed the buffer (Count)
system.ruby.dir_cntrl11.requestToDir.m_buf_msgs     0.053327                       # Average number of messages in buffer ((Count/Tick))
system.ruby.dir_cntrl11.responseToDir.m_msg_count       187850                       # Number of messages passed the buffer (Count)
system.ruby.dir_cntrl11.responseToDir.m_buf_msgs     0.021869                       # Average number of messages in buffer ((Count/Tick))
system.ruby.dir_cntrl12.forwardToDir.m_msg_count       456455                       # Number of messages passed the buffer (Count)
system.ruby.dir_cntrl12.forwardToDir.m_buf_msgs     0.053138                       # Average number of messages in buffer ((Count/Tick))
system.ruby.dir_cntrl12.power_state.pwrStateResidencyTicks::UNDEFINED   2147483750                       # Cumulative time (in ticks) in various power states (Tick)
system.ruby.dir_cntrl12.requestToDir.m_msg_count       457901                       # Number of messages passed the buffer (Count)
system.ruby.dir_cntrl12.requestToDir.m_buf_msgs     0.053307                       # Average number of messages in buffer ((Count/Tick))
system.ruby.dir_cntrl12.responseToDir.m_msg_count       187438                       # Number of messages passed the buffer (Count)
system.ruby.dir_cntrl12.responseToDir.m_buf_msgs     0.021821                       # Average number of messages in buffer ((Count/Tick))
system.ruby.dir_cntrl13.forwardToDir.m_msg_count       459438                       # Number of messages passed the buffer (Count)
system.ruby.dir_cntrl13.forwardToDir.m_buf_msgs     0.053486                       # Average number of messages in buffer ((Count/Tick))
system.ruby.dir_cntrl13.power_state.pwrStateResidencyTicks::UNDEFINED   2147483750                       # Cumulative time (in ticks) in various power states (Tick)
system.ruby.dir_cntrl13.requestToDir.m_msg_count       456896                       # Number of messages passed the buffer (Count)
system.ruby.dir_cntrl13.requestToDir.m_buf_msgs     0.053190                       # Average number of messages in buffer ((Count/Tick))
system.ruby.dir_cntrl13.responseToDir.m_msg_count       187439                       # Number of messages passed the buffer (Count)
system.ruby.dir_cntrl13.responseToDir.m_buf_msgs     0.021821                       # Average number of messages in buffer ((Count/Tick))
system.ruby.dir_cntrl14.forwardToDir.m_msg_count       457595                       # Number of messages passed the buffer (Count)
system.ruby.dir_cntrl14.forwardToDir.m_buf_msgs     0.053271                       # Average number of messages in buffer ((Count/Tick))
system.ruby.dir_cntrl14.power_state.pwrStateResidencyTicks::UNDEFINED   2147483750                       # Cumulative time (in ticks) in various power states (Tick)
system.ruby.dir_cntrl14.requestToDir.m_msg_count       457215                       # Number of messages passed the buffer (Count)
system.ruby.dir_cntrl14.requestToDir.m_buf_msgs     0.053227                       # Average number of messages in buffer ((Count/Tick))
system.ruby.dir_cntrl14.responseToDir.m_msg_count       187323                       # Number of messages passed the buffer (Count)
system.ruby.dir_cntrl14.responseToDir.m_buf_msgs     0.021807                       # Average number of messages in buffer ((Count/Tick))
system.ruby.dir_cntrl15.forwardToDir.m_msg_count       458665                       # Number of messages passed the buffer (Count)
system.ruby.dir_cntrl15.forwardToDir.m_buf_msgs     0.053396                       # Average number of messages in buffer ((Count/Tick))
system.ruby.dir_cntrl15.power_state.pwrStateResidencyTicks::UNDEFINED   2147483750                       # Cumulative time (in ticks) in various power states (Tick)
system.ruby.dir_cntrl15.requestToDir.m_msg_count       458210                       # Number of messages passed the buffer (Count)
system.ruby.dir_cntrl15.requestToDir.m_buf_msgs     0.053343                       # Average number of messages in buffer ((Count/Tick))
system.ruby.dir_cntrl15.responseToDir.m_msg_count       187423                       # Number of messages passed the buffer (Count)
system.ruby.dir_cntrl15.responseToDir.m_buf_msgs     0.021819                       # Average number of messages in buffer ((Count/Tick))
system.ruby.dir_cntrl16.forwardToDir.m_msg_count       458188                       # Number of messages passed the buffer (Count)
system.ruby.dir_cntrl16.forwardToDir.m_buf_msgs     0.053340                       # Average number of messages in buffer ((Count/Tick))
system.ruby.dir_cntrl16.power_state.pwrStateResidencyTicks::UNDEFINED   2147483750                       # Cumulative time (in ticks) in various power states (Tick)
system.ruby.dir_cntrl16.requestToDir.m_msg_count       456493                       # Number of messages passed the buffer (Count)
system.ruby.dir_cntrl16.requestToDir.m_buf_msgs     0.053143                       # Average number of messages in buffer ((Count/Tick))
system.ruby.dir_cntrl16.responseToDir.m_msg_count       186885                       # Number of messages passed the buffer (Count)
system.ruby.dir_cntrl16.responseToDir.m_buf_msgs     0.021756                       # Average number of messages in buffer ((Count/Tick))
system.ruby.dir_cntrl17.forwardToDir.m_msg_count       457728                       # Number of messages passed the buffer (Count)
system.ruby.dir_cntrl17.forwardToDir.m_buf_msgs     0.053287                       # Average number of messages in buffer ((Count/Tick))
system.ruby.dir_cntrl17.power_state.pwrStateResidencyTicks::UNDEFINED   2147483750                       # Cumulative time (in ticks) in various power states (Tick)
system.ruby.dir_cntrl17.requestToDir.m_msg_count       458469                       # Number of messages passed the buffer (Count)
system.ruby.dir_cntrl17.requestToDir.m_buf_msgs     0.053373                       # Average number of messages in buffer ((Count/Tick))
system.ruby.dir_cntrl17.responseToDir.m_msg_count       187376                       # Number of messages passed the buffer (Count)
system.ruby.dir_cntrl17.responseToDir.m_buf_msgs     0.021813                       # Average number of messages in buffer ((Count/Tick))
system.ruby.dir_cntrl18.forwardToDir.m_msg_count       457073                       # Number of messages passed the buffer (Count)
system.ruby.dir_cntrl18.forwardToDir.m_buf_msgs     0.053210                       # Average number of messages in buffer ((Count/Tick))
system.ruby.dir_cntrl18.power_state.pwrStateResidencyTicks::UNDEFINED   2147483750                       # Cumulative time (in ticks) in various power states (Tick)
system.ruby.dir_cntrl18.requestToDir.m_msg_count       458623                       # Number of messages passed the buffer (Count)
system.ruby.dir_cntrl18.requestToDir.m_buf_msgs     0.053391                       # Average number of messages in buffer ((Count/Tick))
system.ruby.dir_cntrl18.responseToDir.m_msg_count       188276                       # Number of messages passed the buffer (Count)
system.ruby.dir_cntrl18.responseToDir.m_buf_msgs     0.021918                       # Average number of messages in buffer ((Count/Tick))
system.ruby.dir_cntrl19.forwardToDir.m_msg_count       458023                       # Number of messages passed the buffer (Count)
system.ruby.dir_cntrl19.forwardToDir.m_buf_msgs     0.053321                       # Average number of messages in buffer ((Count/Tick))
system.ruby.dir_cntrl19.power_state.pwrStateResidencyTicks::UNDEFINED   2147483750                       # Cumulative time (in ticks) in various power states (Tick)
system.ruby.dir_cntrl19.requestToDir.m_msg_count       457593                       # Number of messages passed the buffer (Count)
system.ruby.dir_cntrl19.requestToDir.m_buf_msgs     0.053271                       # Average number of messages in buffer ((Count/Tick))
system.ruby.dir_cntrl19.responseToDir.m_msg_count       187050                       # Number of messages passed the buffer (Count)
system.ruby.dir_cntrl19.responseToDir.m_buf_msgs     0.021775                       # Average number of messages in buffer ((Count/Tick))
system.ruby.dir_cntrl2.forwardToDir.m_msg_count       458022                       # Number of messages passed the buffer (Count)
system.ruby.dir_cntrl2.forwardToDir.m_buf_msgs     0.053321                       # Average number of messages in buffer ((Count/Tick))
system.ruby.dir_cntrl2.power_state.pwrStateResidencyTicks::UNDEFINED   2147483750                       # Cumulative time (in ticks) in various power states (Tick)
system.ruby.dir_cntrl2.requestToDir.m_msg_count       457589                       # Number of messages passed the buffer (Count)
system.ruby.dir_cntrl2.requestToDir.m_buf_msgs     0.053270                       # Average number of messages in buffer ((Count/Tick))
system.ruby.dir_cntrl2.responseToDir.m_msg_count       186803                       # Number of messages passed the buffer (Count)
system.ruby.dir_cntrl2.responseToDir.m_buf_msgs     0.021747                       # Average number of messages in buffer ((Count/Tick))
system.ruby.dir_cntrl20.forwardToDir.m_msg_count       457873                       # Number of messages passed the buffer (Count)
system.ruby.dir_cntrl20.forwardToDir.m_buf_msgs     0.053303                       # Average number of messages in buffer ((Count/Tick))
system.ruby.dir_cntrl20.power_state.pwrStateResidencyTicks::UNDEFINED   2147483750                       # Cumulative time (in ticks) in various power states (Tick)
system.ruby.dir_cntrl20.requestToDir.m_msg_count       457922                       # Number of messages passed the buffer (Count)
system.ruby.dir_cntrl20.requestToDir.m_buf_msgs     0.053309                       # Average number of messages in buffer ((Count/Tick))
system.ruby.dir_cntrl20.responseToDir.m_msg_count       187116                       # Number of messages passed the buffer (Count)
system.ruby.dir_cntrl20.responseToDir.m_buf_msgs     0.021783                       # Average number of messages in buffer ((Count/Tick))
system.ruby.dir_cntrl21.forwardToDir.m_msg_count       457762                       # Number of messages passed the buffer (Count)
system.ruby.dir_cntrl21.forwardToDir.m_buf_msgs     0.053291                       # Average number of messages in buffer ((Count/Tick))
system.ruby.dir_cntrl21.power_state.pwrStateResidencyTicks::UNDEFINED   2147483750                       # Cumulative time (in ticks) in various power states (Tick)
system.ruby.dir_cntrl21.requestToDir.m_msg_count       456791                       # Number of messages passed the buffer (Count)
system.ruby.dir_cntrl21.requestToDir.m_buf_msgs     0.053177                       # Average number of messages in buffer ((Count/Tick))
system.ruby.dir_cntrl21.responseToDir.m_msg_count       187272                       # Number of messages passed the buffer (Count)
system.ruby.dir_cntrl21.responseToDir.m_buf_msgs     0.021801                       # Average number of messages in buffer ((Count/Tick))
system.ruby.dir_cntrl22.forwardToDir.m_msg_count       456096                       # Number of messages passed the buffer (Count)
system.ruby.dir_cntrl22.forwardToDir.m_buf_msgs     0.053097                       # Average number of messages in buffer ((Count/Tick))
system.ruby.dir_cntrl22.power_state.pwrStateResidencyTicks::UNDEFINED   2147483750                       # Cumulative time (in ticks) in various power states (Tick)
system.ruby.dir_cntrl22.requestToDir.m_msg_count       457570                       # Number of messages passed the buffer (Count)
system.ruby.dir_cntrl22.requestToDir.m_buf_msgs     0.053268                       # Average number of messages in buffer ((Count/Tick))
system.ruby.dir_cntrl22.responseToDir.m_msg_count       187588                       # Number of messages passed the buffer (Count)
system.ruby.dir_cntrl22.responseToDir.m_buf_msgs     0.021838                       # Average number of messages in buffer ((Count/Tick))
system.ruby.dir_cntrl23.forwardToDir.m_msg_count       457271                       # Number of messages passed the buffer (Count)
system.ruby.dir_cntrl23.forwardToDir.m_buf_msgs     0.053233                       # Average number of messages in buffer ((Count/Tick))
system.ruby.dir_cntrl23.power_state.pwrStateResidencyTicks::UNDEFINED   2147483750                       # Cumulative time (in ticks) in various power states (Tick)
system.ruby.dir_cntrl23.requestToDir.m_msg_count       457320                       # Number of messages passed the buffer (Count)
system.ruby.dir_cntrl23.requestToDir.m_buf_msgs     0.053239                       # Average number of messages in buffer ((Count/Tick))
system.ruby.dir_cntrl23.responseToDir.m_msg_count       187963                       # Number of messages passed the buffer (Count)
system.ruby.dir_cntrl23.responseToDir.m_buf_msgs     0.021882                       # Average number of messages in buffer ((Count/Tick))
system.ruby.dir_cntrl24.forwardToDir.m_msg_count       458192                       # Number of messages passed the buffer (Count)
system.ruby.dir_cntrl24.forwardToDir.m_buf_msgs     0.053341                       # Average number of messages in buffer ((Count/Tick))
system.ruby.dir_cntrl24.power_state.pwrStateResidencyTicks::UNDEFINED   2147483750                       # Cumulative time (in ticks) in various power states (Tick)
system.ruby.dir_cntrl24.requestToDir.m_msg_count       457042                       # Number of messages passed the buffer (Count)
system.ruby.dir_cntrl24.requestToDir.m_buf_msgs     0.053207                       # Average number of messages in buffer ((Count/Tick))
system.ruby.dir_cntrl24.responseToDir.m_msg_count       187036                       # Number of messages passed the buffer (Count)
system.ruby.dir_cntrl24.responseToDir.m_buf_msgs     0.021774                       # Average number of messages in buffer ((Count/Tick))
system.ruby.dir_cntrl25.forwardToDir.m_msg_count       457983                       # Number of messages passed the buffer (Count)
system.ruby.dir_cntrl25.forwardToDir.m_buf_msgs     0.053316                       # Average number of messages in buffer ((Count/Tick))
system.ruby.dir_cntrl25.power_state.pwrStateResidencyTicks::UNDEFINED   2147483750                       # Cumulative time (in ticks) in various power states (Tick)
system.ruby.dir_cntrl25.requestToDir.m_msg_count       456273                       # Number of messages passed the buffer (Count)
system.ruby.dir_cntrl25.requestToDir.m_buf_msgs     0.053117                       # Average number of messages in buffer ((Count/Tick))
system.ruby.dir_cntrl25.responseToDir.m_msg_count       187842                       # Number of messages passed the buffer (Count)
system.ruby.dir_cntrl25.responseToDir.m_buf_msgs     0.021868                       # Average number of messages in buffer ((Count/Tick))
system.ruby.dir_cntrl26.forwardToDir.m_msg_count       457267                       # Number of messages passed the buffer (Count)
system.ruby.dir_cntrl26.forwardToDir.m_buf_msgs     0.053233                       # Average number of messages in buffer ((Count/Tick))
system.ruby.dir_cntrl26.power_state.pwrStateResidencyTicks::UNDEFINED   2147483750                       # Cumulative time (in ticks) in various power states (Tick)
system.ruby.dir_cntrl26.requestToDir.m_msg_count       458468                       # Number of messages passed the buffer (Count)
system.ruby.dir_cntrl26.requestToDir.m_buf_msgs     0.053373                       # Average number of messages in buffer ((Count/Tick))
system.ruby.dir_cntrl26.responseToDir.m_msg_count       187831                       # Number of messages passed the buffer (Count)
system.ruby.dir_cntrl26.responseToDir.m_buf_msgs     0.021866                       # Average number of messages in buffer ((Count/Tick))
system.ruby.dir_cntrl27.forwardToDir.m_msg_count       456707                       # Number of messages passed the buffer (Count)
system.ruby.dir_cntrl27.forwardToDir.m_buf_msgs     0.053168                       # Average number of messages in buffer ((Count/Tick))
system.ruby.dir_cntrl27.power_state.pwrStateResidencyTicks::UNDEFINED   2147483750                       # Cumulative time (in ticks) in various power states (Tick)
[...]
system.ruby.network.sankey.vcvn35.vcvn5             0                       (Unspecified)
system.ruby.network.sankey.vcvn35.vcvn6             0                       (Unspecified)
system.ruby.network.sankey.vcvn35.vcvn7             0                       (Unspecified)
system.ruby.network.sankey.vcvn35.vcvn8             0                       (Unspecified)
system.ruby.network.sankey.vcvn35.vcvn9             0                       (Unspecified)
system.ruby.network.sankey.vcvn4.vcvn0        1970283                       (Unspecified)
system.ruby.network.sankey.vcvn4.vcvn1         542704                       (Unspecified)
system.ruby.network.sankey.vcvn4.vcvn10            30                       (Unspecified)
system.ruby.network.sankey.vcvn4.vcvn11            79                       (Unspecified)
system.ruby.network.sankey.vcvn4.vcvn12             0                       (Unspecified)
system.ruby.network.sankey.vcvn4.vcvn13             0                       (Unspecified)
system.ruby.network.sankey.vcvn4.vcvn14             0                       (Unspecified)
system.ruby.network.sankey.vcvn4.vcvn15             0                       (Unspecified)
system.ruby.network.sankey.vcvn4.vcvn16             0                       (Unspecified)
system.ruby.network.sankey.vcvn4.vcvn17             0                       (Unspecified)
system.ruby.network.sankey.vcvn4.vcvn18             0                       (Unspecified)
system.ruby.network.sankey.vcvn4.vcvn19             0                       (Unspecified)
system.ruby.network.sankey.vcvn4.vcvn2          86235                       (Unspecified)
system.ruby.network.sankey.vcvn4.vcvn20             0                       (Unspecified)
system.ruby.network.sankey.vcvn4.vcvn21             0                       (Unspecified)
system.ruby.network.sankey.vcvn4.vcvn22             0                       (Unspecified)
system.ruby.network.sankey.vcvn4.vcvn23             0                       (Unspecified)
system.ruby.network.sankey.vcvn4.vcvn24             0                       (Unspecified)
system.ruby.network.sankey.vcvn4.vcvn25             0                       (Unspecified)
system.ruby.network.sankey.vcvn4.vcvn26             0                       (Unspecified)
system.ruby.network.sankey.vcvn4.vcvn27             0                       (Unspecified)
system.ruby.network.sankey.vcvn4.vcvn28             0                       (Unspecified)
system.ruby.network.sankey.vcvn4.vcvn29             0                       (Unspecified)
system.ruby.network.sankey.vcvn4.vcvn3           8164                       (Unspecified)
system.ruby.network.sankey.vcvn4.vcvn30             0                       (Unspecified)
system.ruby.network.sankey.vcvn4.vcvn31             0                       (Unspecified)
system.ruby.network.sankey.vcvn4.vcvn32             0                       (Unspecified)
system.ruby.network.sankey.vcvn4.vcvn33             0                       (Unspecified)
system.ruby.network.sankey.vcvn4.vcvn34             0                       (Unspecified)
system.ruby.network.sankey.vcvn4.vcvn35             0                       (Unspecified)
system.ruby.network.sankey.vcvn4.vcvn4            462                       (Unspecified)
system.ruby.network.sankey.vcvn4.vcvn5              4                       (Unspecified)
system.ruby.network.sankey.vcvn4.vcvn6              0                       (Unspecified)
system.ruby.network.sankey.vcvn4.vcvn7              0                       (Unspecified)
system.ruby.network.sankey.vcvn4.vcvn8              0                       (Unspecified)
system.ruby.network.sankey.vcvn4.vcvn9              0                       (Unspecified)
system.ruby.network.sankey.vcvn5.vcvn0        1970116                       (Unspecified)
system.ruby.network.sankey.vcvn5.vcvn1         543362                       (Unspecified)
system.ruby.network.sankey.vcvn5.vcvn10            20                       (Unspecified)
system.ruby.network.sankey.vcvn5.vcvn11            94                       (Unspecified)
system.ruby.network.sankey.vcvn5.vcvn12             0                       (Unspecified)
system.ruby.network.sankey.vcvn5.vcvn13             0                       (Unspecified)
system.ruby.network.sankey.vcvn5.vcvn14             0                       (Unspecified)
system.ruby.network.sankey.vcvn5.vcvn15             0                       (Unspecified)
system.ruby.network.sankey.vcvn5.vcvn16             0                       (Unspecified)
system.ruby.network.sankey.vcvn5.vcvn17             0                       (Unspecified)
system.ruby.network.sankey.vcvn5.vcvn18             0                       (Unspecified)
system.ruby.network.sankey.vcvn5.vcvn19             0                       (Unspecified)
system.ruby.network.sankey.vcvn5.vcvn2          85668                       (Unspecified)
system.ruby.network.sankey.vcvn5.vcvn20             0                       (Unspecified)
system.ruby.network.sankey.vcvn5.vcvn21             0                       (Unspecified)
system.ruby.network.sankey.vcvn5.vcvn22             0                       (Unspecified)
system.ruby.network.sankey.vcvn5.vcvn23             0                       (Unspecified)
system.ruby.network.sankey.vcvn5.vcvn24             0                       (Unspecified)
system.ruby.network.sankey.vcvn5.vcvn25             0                       (Unspecified)
system.ruby.network.sankey.vcvn5.vcvn26             0                       (Unspecified)
system.ruby.network.sankey.vcvn5.vcvn27             0                       (Unspecified)
system.ruby.network.sankey.vcvn5.vcvn28             0                       (Unspecified)
system.ruby.network.sankey.vcvn5.vcvn29             0                       (Unspecified)
system.ruby.network.sankey.vcvn5.vcvn3           8217                       (Unspecified)
system.ruby.network.sankey.vcvn5.vcvn30             0                       (Unspecified)
system.ruby.network.sankey.vcvn5.vcvn31             0                       (Unspecified)
system.ruby.network.sankey.vcvn5.vcvn32             0                       (Unspecified)
system.ruby.network.sankey.vcvn5.vcvn33             0                       (Unspecified)
system.ruby.network.sankey.vcvn5.vcvn34             0                       (Unspecified)
system.ruby.network.sankey.vcvn5.vcvn35             0                       (Unspecified)
system.ruby.network.sankey.vcvn5.vcvn4            477                       (Unspecified)
system.ruby.network.sankey.vcvn5.vcvn5              0                       (Unspecified)
system.ruby.network.sankey.vcvn5.vcvn6              0                       (Unspecified)
system.ruby.network.sankey.vcvn5.vcvn7              0                       (Unspecified)
system.ruby.network.sankey.vcvn5.vcvn8              0                       (Unspecified)
system.ruby.network.sankey.vcvn5.vcvn9              0                       (Unspecified)
system.ruby.network.sankey.vcvn6.vcvn0        1971409                       (Unspecified)
system.ruby.network.sankey.vcvn6.vcvn1         541864                       (Unspecified)
system.ruby.network.sankey.vcvn6.vcvn10            27                       (Unspecified)
system.ruby.network.sankey.vcvn6.vcvn11            94                       (Unspecified)
system.ruby.network.sankey.vcvn6.vcvn12             0                       (Unspecified)
system.ruby.network.sankey.vcvn6.vcvn13             0                       (Unspecified)
system.ruby.network.sankey.vcvn6.vcvn14             0                       (Unspecified)
system.ruby.network.sankey.vcvn6.vcvn15             0                       (Unspecified)
system.ruby.network.sankey.vcvn6.vcvn16             0                       (Unspecified)
system.ruby.network.sankey.vcvn6.vcvn17             0                       (Unspecified)
system.ruby.network.sankey.vcvn6.vcvn18             0                       (Unspecified)
system.ruby.network.sankey.vcvn6.vcvn19             0                       (Unspecified)
system.ruby.network.sankey.vcvn6.vcvn2          85878                       (Unspecified)
system.ruby.network.sankey.vcvn6.vcvn20             0                       (Unspecified)
system.ruby.network.sankey.vcvn6.vcvn21             0                       (Unspecified)
system.ruby.network.sankey.vcvn6.vcvn22             0                       (Unspecified)
system.ruby.network.sankey.vcvn6.vcvn23             0                       (Unspecified)
system.ruby.network.sankey.vcvn6.vcvn24             0                       (Unspecified)
system.ruby.network.sankey.vcvn6.vcvn25             0                       (Unspecified)
system.ruby.network.sankey.vcvn6.vcvn26             0                       (Unspecified)
system.ruby.network.sankey.vcvn6.vcvn27             0                       (Unspecified)
system.ruby.network.sankey.vcvn6.vcvn28             0                       (Unspecified)
system.ruby.network.sankey.vcvn6.vcvn29             0                       (Unspecified)
system.ruby.network.sankey.vcvn6.vcvn3           8234                       (Unspecified)
system.ruby.network.sankey.vcvn6.vcvn30             0                       (Unspecified)
system.ruby.network.sankey.vcvn6.vcvn31             0                       (Unspecified)
system.ruby.network.sankey.vcvn6.vcvn32             0                       (Unspecified)
system.ruby.network.sankey.vcvn6.vcvn33             0                       (Unspecified)
system.ruby.network.sankey.vcvn6.vcvn34             0                       (Unspecified)
system.ruby.network.sankey.vcvn6.vcvn35             0                       (Unspecified)
system.ruby.network.sankey.vcvn6.vcvn4            442                       (Unspecified)
system.ruby.network.sankey.vcvn6.vcvn5              0                       (Unspecified)
system.ruby.network.sankey.vcvn6.vcvn6              0                       (Unspecified)
system.ruby.network.sankey.vcvn6.vcvn7              0                       (Unspecified)
system.ruby.network.sankey.vcvn6.vcvn8              0                       (Unspecified)
system.ruby.network.sankey.vcvn6.vcvn9              0                       (Unspecified)
system.ruby.network.sankey.vcvn7.vcvn0        1971168                       (Unspecified)
system.ruby.network.sankey.vcvn7.vcvn1         542370                       (Unspecified)
system.ruby.network.sankey.vcvn7.vcvn10            30                       (Unspecified)
system.ruby.network.sankey.vcvn7.vcvn11            96                       (Unspecified)
system.ruby.network.sankey.vcvn7.vcvn12             0                       (Unspecified)
system.ruby.network.sankey.vcvn7.vcvn13             0                       (Unspecified)
system.ruby.network.sankey.vcvn7.vcvn14             0                       (Unspecified)
system.ruby.network.sankey.vcvn7.vcvn15             0                       (Unspecified)
system.ruby.network.sankey.vcvn7.vcvn16             0                       (Unspecified)
system.ruby.network.sankey.vcvn7.vcvn17             0                       (Unspecified)
system.ruby.network.sankey.vcvn7.vcvn18             0                       (Unspecified)
system.ruby.network.sankey.vcvn7.vcvn19             0                       (Unspecified)
system.ruby.network.sankey.vcvn7.vcvn2          85645                       (Unspecified)
system.ruby.network.sankey.vcvn7.vcvn20             0                       (Unspecified)
system.ruby.network.sankey.vcvn7.vcvn21             0                       (Unspecified)
system.ruby.network.sankey.vcvn7.vcvn22             0                       (Unspecified)
system.ruby.network.sankey.vcvn7.vcvn23             0                       (Unspecified)
system.ruby.network.sankey.vcvn7.vcvn24             0                       (Unspecified)
system.ruby.network.sankey.vcvn7.vcvn25             0                       (Unspecified)
system.ruby.network.sankey.vcvn7.vcvn26             0                       (Unspecified)
system.ruby.network.sankey.vcvn7.vcvn27             0                       (Unspecified)
system.ruby.network.sankey.vcvn7.vcvn28             0                       (Unspecified)
system.ruby.network.sankey.vcvn7.vcvn29             0                       (Unspecified)
system.ruby.network.sankey.vcvn7.vcvn3           8197                       (Unspecified)
system.ruby.network.sankey.vcvn7.vcvn30             0                       (Unspecified)
system.ruby.network.sankey.vcvn7.vcvn31             0                       (Unspecified)
system.ruby.network.sankey.vcvn7.vcvn32             0                       (Unspecified)
system.ruby.network.sankey.vcvn7.vcvn33             0                       (Unspecified)
system.ruby.network.sankey.vcvn7.vcvn34             0                       (Unspecified)
system.ruby.network.sankey.vcvn7.vcvn35             0                       (Unspecified)
system.ruby.network.sankey.vcvn7.vcvn4            428                       (Unspecified)
system.ruby.network.sankey.vcvn7.vcvn5              6                       (Unspecified)
system.ruby.network.sankey.vcvn7.vcvn6              0                       (Unspecified)
system.ruby.network.sankey.vcvn7.vcvn7              0                       (Unspecified)
system.ruby.network.sankey.vcvn7.vcvn8              0                       (Unspecified)
system.ruby.network.sankey.vcvn7.vcvn9              0                       (Unspecified)
system.ruby.network.sankey.vcvn8.vcvn0        1970056                       (Unspecified)
system.ruby.network.sankey.vcvn8.vcvn1         543213                       (Unspecified)
system.ruby.network.sankey.vcvn8.vcvn10            26                       (Unspecified)
system.ruby.network.sankey.vcvn8.vcvn11            91                       (Unspecified)
system.ruby.network.sankey.vcvn8.vcvn12             0                       (Unspecified)
system.ruby.network.sankey.vcvn8.vcvn13             0                       (Unspecified)
system.ruby.network.sankey.vcvn8.vcvn14             0                       (Unspecified)
system.ruby.network.sankey.vcvn8.vcvn15             0                       (Unspecified)
system.ruby.network.sankey.vcvn8.vcvn16             0                       (Unspecified)
system.ruby.network.sankey.vcvn8.vcvn17             0                       (Unspecified)
system.ruby.network.sankey.vcvn8.vcvn18             0                       (Unspecified)
system.ruby.network.sankey.vcvn8.vcvn19             0                       (Unspecified)
system.ruby.network.sankey.vcvn8.vcvn2          85841                       (Unspecified)
system.ruby.network.sankey.vcvn8.vcvn20             0                       (Unspecified)
system.ruby.network.sankey.vcvn8.vcvn21             0                       (Unspecified)
system.ruby.network.sankey.vcvn8.vcvn22             0                       (Unspecified)
system.ruby.network.sankey.vcvn8.vcvn23             0                       (Unspecified)
system.ruby.network.sankey.vcvn8.vcvn24             0                       (Unspecified)
system.ruby.network.sankey.vcvn8.vcvn25             0                       (Unspecified)
system.ruby.network.sankey.vcvn8.vcvn26             0                       (Unspecified)
system.ruby.network.sankey.vcvn8.vcvn27             0                       (Unspecified)
system.ruby.network.sankey.vcvn8.vcvn28             0                       (Unspecified)
system.ruby.network.sankey.vcvn8.vcvn29             0                       (Unspecified)
system.ruby.network.sankey.vcvn8.vcvn3           8243                       (Unspecified)
system.ruby.network.sankey.vcvn8.vcvn30             0                       (Unspecified)
system.ruby.network.sankey.vcvn8.vcvn31             0                       (Unspecified)
system.ruby.network.sankey.vcvn8.vcvn32             0                       (Unspecified)
system.ruby.network.sankey.vcvn8.vcvn33             0                       (Unspecified)
system.ruby.network.sankey.vcvn8.vcvn34             0                       (Unspecified)
system.ruby.network.sankey.vcvn8.vcvn35             0                       (Unspecified)
system.ruby.network.sankey.vcvn8.vcvn4            463                       (Unspecified)
system.ruby.network.sankey.vcvn8.vcvn5              0                       (Unspecified)
system.ruby.network.sankey.vcvn8.vcvn6              0                       (Unspecified)
system.ruby.network.sankey.vcvn8.vcvn7              0                       (Unspecified)
system.ruby.network.sankey.vcvn8.vcvn8              0                       (Unspecified)
system.ruby.network.sankey.vcvn8.vcvn9              0                       (Unspecified)
system.ruby.network.sankey.vcvn9.vcvn0        1970278                       (Unspecified)
system.ruby.network.sankey.vcvn9.vcvn1         542658                       (Unspecified)
system.ruby.network.sankey.vcvn9.vcvn10            34                       (Unspecified)
system.ruby.network.sankey.vcvn9.vcvn11            92                       (Unspecified)
system.ruby.network.sankey.vcvn9.vcvn12             0                       (Unspecified)
system.ruby.network.sankey.vcvn9.vcvn13             0                       (Unspecified)
system.ruby.network.sankey.vcvn9.vcvn14             0                       (Unspecified)
system.ruby.network.sankey.vcvn9.vcvn15             0                       (Unspecified)
system.ruby.network.sankey.vcvn9.vcvn16             0                       (Unspecified)
system.ruby.network.sankey.vcvn9.vcvn17             0                       (Unspecified)
system.ruby.network.sankey.vcvn9.vcvn18             0                       (Unspecified)
system.ruby.network.sankey.vcvn9.vcvn19             0                       (Unspecified)
system.ruby.network.sankey.vcvn9.vcvn2          86238                       (Unspecified)
system.ruby.network.sankey.vcvn9.vcvn20             0                       (Unspecified)
system.ruby.network.sankey.vcvn9.vcvn21             0                       (Unspecified)
system.ruby.network.sankey.vcvn9.vcvn22             0                       (Unspecified)
system.ruby.network.sankey.vcvn9.vcvn23             0                       (Unspecified)
system.ruby.network.sankey.vcvn9.vcvn24             0                       (Unspecified)
system.ruby.network.sankey.vcvn9.vcvn25             0                       (Unspecified)
system.ruby.network.sankey.vcvn9.vcvn26             0                       (Unspecified)
system.ruby.network.sankey.vcvn9.vcvn27             0                       (Unspecified)
system.ruby.network.sankey.vcvn9.vcvn28             0                       (Unspecified)
system.ruby.network.sankey.vcvn9.vcvn29             0                       (Unspecified)
system.ruby.network.sankey.vcvn9.vcvn3           8210                       (Unspecified)
system.ruby.network.sankey.vcvn9.vcvn30             0                       (Unspecified)
system.ruby.network.sankey.vcvn9.vcvn31             0                       (Unspecified)
system.ruby.network.sankey.vcvn9.vcvn32             0                       (Unspecified)
system.ruby.network.sankey.vcvn9.vcvn33             0                       (Unspecified)
system.ruby.network.sankey.vcvn9.vcvn34             0                       (Unspecified)
system.ruby.network.sankey.vcvn9.vcvn35             0                       (Unspecified)
system.ruby.network.sankey.vcvn9.vcvn4            414                       (Unspecified)
system.ruby.network.sankey.vcvn9.vcvn5              1                       (Unspecified)
system.ruby.network.sankey.vcvn9.vcvn6              0                       (Unspecified)
system.ruby.network.sankey.vcvn9.vcvn7              0                       (Unspecified)
system.ruby.network.sankey.vcvn9.vcvn8              0                       (Unspecified)
system.ruby.network.sankey.vcvn9.vcvn9              0                       (Unspecified)

---------- End Simulation Statistics   ----------
