gem5 Simulator System.  https://www.gem5.org
gem5 is copyrighted software; use the --copyright option for details.

gem5 version 22.0.0.2
gem5 compiled Jun 17 2023 14:31:12
gem5 started Nov 18 2023 15:51:08
gem5 executing on mnemosyne14.ecn.purdue.edu, pid 24089
command line: ./build/Garnet_standalone/gem5.fast -d ./synth_outputs/simple/2b/mixed/mclb_hops_4_6_40cpus_4xdirs_4.0GHz/coh/kite_large/0_195/ configs/auto_top/auto_top_synth.py --topology EscapeVirtualNetworks --noi_routers 20 --sim-cycles 2147483647 --injectionrate 0.195 --noc_clk 4.0GHz --sys-clock 4.0GHz --ruby-clock 4.0GHz --noi_clk 2.7GHz --router_map_file configs/topologies/paper_solutions/kite_large.map --flat_vn_map_file configs/topologies/vn_maps_mclb/kite_large_mclb_hops_4vns.vn --flat_nr_map_file configs/topologies/nr_list_mclb/kite_large_mclb.nrl --ruby --mem_or_coh coh --mem-size 320000000 --num-dirs 160 --num-cpus 40 --network garnet --mem-type SimpleMemory --routing-algorithm 2 --use_escape_vns --synth_traffic --vcs-per-vnet 6 --evn_deadlock_partition 2 --evn_n_deadlock_free 1 --evn_min_n_deadlock_free 4

info: Standard input is not a terminal, disabling listeners.
ingesting configs/topologies/vn_maps_mclb/kite_large_mclb_hops_4vns.vn
cpus(40)=[<m5.objects.GarnetSyntheticTraffic.GarnetSyntheticTraffic object at 0x7fdd15c99080>, <m5.objects.GarnetSyntheticTraffic.GarnetSyntheticTraffic object at 0x7fdd15c99da0>, <m5.objects.GarnetSyntheticTraffic.GarnetSyntheticTraffic object at 0x7fdd158150b8>, <m5.objects.GarnetSyntheticTraffic.GarnetSyntheticTraffic object at 0x7fdd15815390>, <m5.objects.GarnetSyntheticTraffic.GarnetSyntheticTraffic object at 0x7fdd15815668>, <m5.objects.GarnetSyntheticTraffic.GarnetSyntheticTraffic object at 0x7fdd15815940>, <m5.objects.GarnetSyntheticTraffic.GarnetSyntheticTraffic object at 0x7fdd15815c18>, <m5.objects.GarnetSyntheticTraffic.GarnetSyntheticTraffic object at 0x7fdd15815ef0>, <m5.objects.GarnetSyntheticTraffic.GarnetSyntheticTraffic object at 0x7fdd1581e208>, <m5.objects.GarnetSyntheticTraffic.GarnetSyntheticTraffic object at 0x7fdd1581e4e0>, <m5.objects.GarnetSyntheticTraffic.GarnetSyntheticTraffic object at 0x7fdd1581e7b8>, <m5.objects.GarnetSyntheticTraffic.GarnetSyntheticTraffic object at 0x7fdd1581ea90>, <m5.objects.GarnetSyntheticTraffic.GarnetSyntheticTraffic object at 0x7fdd15c99898>, <m5.objects.GarnetSyntheticTraffic.GarnetSyntheticTraffic object at 0x7fdd15c89eb8>, <m5.objects.GarnetSyntheticTraffic.GarnetSyntheticTraffic object at 0x7fdd15c93748>, <m5.objects.GarnetSyntheticTraffic.GarnetSyntheticTraffic object at 0x7fdd15c93da0>, <m5.objects.GarnetSyntheticTraffic.GarnetSyntheticTraffic object at 0x7fdd1581ecf8>, <m5.objects.GarnetSyntheticTraffic.GarnetSyntheticTraffic object at 0x7fdd1581efd0>, <m5.objects.GarnetSyntheticTraffic.GarnetSyntheticTraffic object at 0x7fdd1582a2e8>, <m5.objects.GarnetSyntheticTraffic.GarnetSyntheticTraffic object at 0x7fdd1582a5c0>, <m5.objects.GarnetSyntheticTraffic.GarnetSyntheticTraffic object at 0x7fdd1582a898>, <m5.objects.GarnetSyntheticTraffic.GarnetSyntheticTraffic object at 0x7fdd1582ab70>, <m5.objects.GarnetSyntheticTraffic.GarnetSyntheticTraffic object at 0x7fdd1582ae48>, <m5.objects.GarnetSyntheticTraffic.GarnetSyntheticTraffic object at 0x7fdd15831160>, <m5.objects.GarnetSyntheticTraffic.GarnetSyntheticTraffic object at 0x7fdd15831438>, <m5.objects.GarnetSyntheticTraffic.GarnetSyntheticTraffic object at 0x7fdd15831710>, <m5.objects.GarnetSyntheticTraffic.GarnetSyntheticTraffic object at 0x7fdd158319e8>, <m5.objects.GarnetSyntheticTraffic.GarnetSyntheticTraffic object at 0x7fdd15831cc0>, <m5.objects.GarnetSyntheticTraffic.GarnetSyntheticTraffic object at 0x7fdd15831f98>, <m5.objects.GarnetSyntheticTraffic.GarnetSyntheticTraffic object at 0x7fdd158392b0>, <m5.objects.GarnetSyntheticTraffic.GarnetSyntheticTraffic object at 0x7fdd15839588>, <m5.objects.GarnetSyntheticTraffic.GarnetSyntheticTraffic object at 0x7fdd15839860>, <m5.objects.GarnetSyntheticTraffic.GarnetSyntheticTraffic object at 0x7fdd15839b38>, <m5.objects.GarnetSyntheticTraffic.GarnetSyntheticTraffic object at 0x7fdd15839e10>, <m5.objects.GarnetSyntheticTraffic.GarnetSyntheticTraffic object at 0x7fdd15842128>, <m5.objects.GarnetSyntheticTraffic.GarnetSyntheticTraffic object at 0x7fdd15842400>, <m5.objects.GarnetSyntheticTraffic.GarnetSyntheticTraffic object at 0x7fdd158426d8>, <m5.objects.GarnetSyntheticTraffic.GarnetSyntheticTraffic object at 0x7fdd158429b0>, <m5.objects.GarnetSyntheticTraffic.GarnetSyntheticTraffic object at 0x7fdd15842c88>, <m5.objects.GarnetSyntheticTraffic.GarnetSyntheticTraffic object at 0x7fdd15842f60>])
ingesting configs/topologies/nr_list_mclb/kite_large_mclb.nrl
ingesting configs/topologies/vn_maps_mclb/kite_large_mclb_hops_4vns.vn
ext_cdc_required = True
