
---------- Begin Simulation Statistics ----------
simSeconds                                   0.002147                       # Number of seconds simulated (Second)
simTicks                                   2147483750                       # Number of ticks simulated (Tick)
finalTick                                  2147483750                       # Number of ticks from beginning of simulation (restored from checkpoints and never reset) (Tick)
simFreq                                  1000000000000                       # The number of ticks per simulated second ((Tick/Second))
hostSeconds                                  22904.37                       # Real time elapsed on the host (Second)
hostTickRate                                    93759                       # The number of ticks simulated per host second (ticks/s) ((Tick/Second))
hostMemory                                   24585016                       # Number of bytes of host memory used (Byte)
system.clk_domain.clock                           250                       # Clock period in ticks (Tick)
system.cpu0.power_state.pwrStateResidencyTicks::UNDEFINED   2147483750                       # Cumulative time (in ticks) in various power states (Tick)
system.cpu1.power_state.pwrStateResidencyTicks::UNDEFINED   2147483750                       # Cumulative time (in ticks) in various power states (Tick)
system.cpu10.power_state.pwrStateResidencyTicks::UNDEFINED   2147483750                       # Cumulative time (in ticks) in various power states (Tick)
system.cpu11.power_state.pwrStateResidencyTicks::UNDEFINED   2147483750                       # Cumulative time (in ticks) in various power states (Tick)
system.cpu12.power_state.pwrStateResidencyTicks::UNDEFINED   2147483750                       # Cumulative time (in ticks) in various power states (Tick)
system.cpu13.power_state.pwrStateResidencyTicks::UNDEFINED   2147483750                       # Cumulative time (in ticks) in various power states (Tick)
system.cpu14.power_state.pwrStateResidencyTicks::UNDEFINED   2147483750                       # Cumulative time (in ticks) in various power states (Tick)
system.cpu15.power_state.pwrStateResidencyTicks::UNDEFINED   2147483750                       # Cumulative time (in ticks) in various power states (Tick)
system.cpu16.power_state.pwrStateResidencyTicks::UNDEFINED   2147483750                       # Cumulative time (in ticks) in various power states (Tick)
system.cpu17.power_state.pwrStateResidencyTicks::UNDEFINED   2147483750                       # Cumulative time (in ticks) in various power states (Tick)
system.cpu18.power_state.pwrStateResidencyTicks::UNDEFINED   2147483750                       # Cumulative time (in ticks) in various power states (Tick)
system.cpu19.power_state.pwrStateResidencyTicks::UNDEFINED   2147483750                       # Cumulative time (in ticks) in various power states (Tick)
system.cpu2.power_state.pwrStateResidencyTicks::UNDEFINED   2147483750                       # Cumulative time (in ticks) in various power states (Tick)
system.cpu20.power_state.pwrStateResidencyTicks::UNDEFINED   2147483750                       # Cumulative time (in ticks) in various power states (Tick)
system.cpu21.power_state.pwrStateResidencyTicks::UNDEFINED   2147483750                       # Cumulative time (in ticks) in various power states (Tick)
system.cpu22.power_state.pwrStateResidencyTicks::UNDEFINED   2147483750                       # Cumulative time (in ticks) in various power states (Tick)
system.cpu23.power_state.pwrStateResidencyTicks::UNDEFINED   2147483750                       # Cumulative time (in ticks) in various power states (Tick)
system.cpu24.power_state.pwrStateResidencyTicks::UNDEFINED   2147483750                       # Cumulative time (in ticks) in various power states (Tick)
system.cpu25.power_state.pwrStateResidencyTicks::UNDEFINED   2147483750                       # Cumulative time (in ticks) in various power states (Tick)
system.cpu26.power_state.pwrStateResidencyTicks::UNDEFINED   2147483750                       # Cumulative time (in ticks) in various power states (Tick)
system.cpu27.power_state.pwrStateResidencyTicks::UNDEFINED   2147483750                       # Cumulative time (in ticks) in various power states (Tick)
system.cpu28.power_state.pwrStateResidencyTicks::UNDEFINED   2147483750                       # Cumulative time (in ticks) in various power states (Tick)
system.cpu29.power_state.pwrStateResidencyTicks::UNDEFINED   2147483750                       # Cumulative time (in ticks) in various power states (Tick)
system.cpu3.power_state.pwrStateResidencyTicks::UNDEFINED   2147483750                       # Cumulative time (in ticks) in various power states (Tick)
system.cpu30.power_state.pwrStateResidencyTicks::UNDEFINED   2147483750                       # Cumulative time (in ticks) in various power states (Tick)
system.cpu31.power_state.pwrStateResidencyTicks::UNDEFINED   2147483750                       # Cumulative time (in ticks) in various power states (Tick)
system.cpu32.power_state.pwrStateResidencyTicks::UNDEFINED   2147483750                       # Cumulative time (in ticks) in various power states (Tick)
system.cpu33.power_state.pwrStateResidencyTicks::UNDEFINED   2147483750                       # Cumulative time (in ticks) in various power states (Tick)
system.cpu34.power_state.pwrStateResidencyTicks::UNDEFINED   2147483750                       # Cumulative time (in ticks) in various power states (Tick)
system.cpu35.power_state.pwrStateResidencyTicks::UNDEFINED   2147483750                       # Cumulative time (in ticks) in various power states (Tick)
system.cpu36.power_state.pwrStateResidencyTicks::UNDEFINED   2147483750                       # Cumulative time (in ticks) in various power states (Tick)
system.cpu37.power_state.pwrStateResidencyTicks::UNDEFINED   2147483750                       # Cumulative time (in ticks) in various power states (Tick)
system.cpu38.power_state.pwrStateResidencyTicks::UNDEFINED   2147483750                       # Cumulative time (in ticks) in various power states (Tick)
system.cpu39.power_state.pwrStateResidencyTicks::UNDEFINED   2147483750                       # Cumulative time (in ticks) in various power states (Tick)
system.cpu4.power_state.pwrStateResidencyTicks::UNDEFINED   2147483750                       # Cumulative time (in ticks) in various power states (Tick)
system.cpu40.power_state.pwrStateResidencyTicks::UNDEFINED   2147483750                       # Cumulative time (in ticks) in various power states (Tick)
system.cpu41.power_state.pwrStateResidencyTicks::UNDEFINED   2147483750                       # Cumulative time (in ticks) in various power states (Tick)
system.cpu42.power_state.pwrStateResidencyTicks::UNDEFINED   2147483750                       # Cumulative time (in ticks) in various power states (Tick)
system.cpu43.power_state.pwrStateResidencyTicks::UNDEFINED   2147483750                       # Cumulative time (in ticks) in various power states (Tick)
system.cpu44.power_state.pwrStateResidencyTicks::UNDEFINED   2147483750                       # Cumulative time (in ticks) in various power states (Tick)
system.cpu45.power_state.pwrStateResidencyTicks::UNDEFINED   2147483750                       # Cumulative time (in ticks) in various power states (Tick)
system.cpu46.power_state.pwrStateResidencyTicks::UNDEFINED   2147483750                       # Cumulative time (in ticks) in various power states (Tick)
system.cpu47.power_state.pwrStateResidencyTicks::UNDEFINED   2147483750                       # Cumulative time (in ticks) in various power states (Tick)
system.cpu48.power_state.pwrStateResidencyTicks::UNDEFINED   2147483750                       # Cumulative time (in ticks) in various power states (Tick)
system.cpu49.power_state.pwrStateResidencyTicks::UNDEFINED   2147483750                       # Cumulative time (in ticks) in various power states (Tick)
system.cpu5.power_state.pwrStateResidencyTicks::UNDEFINED   2147483750                       # Cumulative time (in ticks) in various power states (Tick)
system.cpu50.power_state.pwrStateResidencyTicks::UNDEFINED   2147483750                       # Cumulative time (in ticks) in various power states (Tick)
system.cpu51.power_state.pwrStateResidencyTicks::UNDEFINED   2147483750                       # Cumulative time (in ticks) in various power states (Tick)
system.cpu52.power_state.pwrStateResidencyTicks::UNDEFINED   2147483750                       # Cumulative time (in ticks) in various power states (Tick)
system.cpu53.power_state.pwrStateResidencyTicks::UNDEFINED   2147483750                       # Cumulative time (in ticks) in various power states (Tick)
system.cpu54.power_state.pwrStateResidencyTicks::UNDEFINED   2147483750                       # Cumulative time (in ticks) in various power states (Tick)
system.cpu55.power_state.pwrStateResidencyTicks::UNDEFINED   2147483750                       # Cumulative time (in ticks) in various power states (Tick)
system.cpu56.power_state.pwrStateResidencyTicks::UNDEFINED   2147483750                       # Cumulative time (in ticks) in various power states (Tick)
system.cpu57.power_state.pwrStateResidencyTicks::UNDEFINED   2147483750                       # Cumulative time (in ticks) in various power states (Tick)
system.cpu58.power_state.pwrStateResidencyTicks::UNDEFINED   2147483750                       # Cumulative time (in ticks) in various power states (Tick)
system.cpu59.power_state.pwrStateResidencyTicks::UNDEFINED   2147483750                       # Cumulative time (in ticks) in various power states (Tick)
system.cpu6.power_state.pwrStateResidencyTicks::UNDEFINED   2147483750                       # Cumulative time (in ticks) in various power states (Tick)
system.cpu60.power_state.pwrStateResidencyTicks::UNDEFINED   2147483750                       # Cumulative time (in ticks) in various power states (Tick)
system.cpu61.power_state.pwrStateResidencyTicks::UNDEFINED   2147483750                       # Cumulative time (in ticks) in various power states (Tick)
system.cpu62.power_state.pwrStateResidencyTicks::UNDEFINED   2147483750                       # Cumulative time (in ticks) in various power states (Tick)
system.cpu63.power_state.pwrStateResidencyTicks::UNDEFINED   2147483750                       # Cumulative time (in ticks) in various power states (Tick)
system.cpu7.power_state.pwrStateResidencyTicks::UNDEFINED   2147483750                       # Cumulative time (in ticks) in various power states (Tick)
system.cpu8.power_state.pwrStateResidencyTicks::UNDEFINED   2147483750                       # Cumulative time (in ticks) in various power states (Tick)
system.cpu9.power_state.pwrStateResidencyTicks::UNDEFINED   2147483750                       # Cumulative time (in ticks) in various power states (Tick)
system.mem_ctrls0.power_state.pwrStateResidencyTicks::UNDEFINED   2147483750                       # Cumulative time (in ticks) in various power states (Tick)
system.mem_ctrls1.power_state.pwrStateResidencyTicks::UNDEFINED   2147483750                       # Cumulative time (in ticks) in various power states (Tick)
system.mem_ctrls10.power_state.pwrStateResidencyTicks::UNDEFINED   2147483750                       # Cumulative time (in ticks) in various power states (Tick)
system.mem_ctrls11.power_state.pwrStateResidencyTicks::UNDEFINED   2147483750                       # Cumulative time (in ticks) in various power states (Tick)
system.mem_ctrls12.power_state.pwrStateResidencyTicks::UNDEFINED   2147483750                       # Cumulative time (in ticks) in various power states (Tick)
system.mem_ctrls13.power_state.pwrStateResidencyTicks::UNDEFINED   2147483750                       # Cumulative time (in ticks) in various power states (Tick)
system.mem_ctrls14.power_state.pwrStateResidencyTicks::UNDEFINED   2147483750                       # Cumulative time (in ticks) in various power states (Tick)
system.mem_ctrls15.power_state.pwrStateResidencyTicks::UNDEFINED   2147483750                       # Cumulative time (in ticks) in various power states (Tick)
system.mem_ctrls16.power_state.pwrStateResidencyTicks::UNDEFINED   2147483750                       # Cumulative time (in ticks) in various power states (Tick)
system.mem_ctrls17.power_state.pwrStateResidencyTicks::UNDEFINED   2147483750                       # Cumulative time (in ticks) in various power states (Tick)
system.mem_ctrls18.power_state.pwrStateResidencyTicks::UNDEFINED   2147483750                       # Cumulative time (in ticks) in various power states (Tick)
system.mem_ctrls19.power_state.pwrStateResidencyTicks::UNDEFINED   2147483750                       # Cumulative time (in ticks) in various power states (Tick)
system.mem_ctrls2.power_state.pwrStateResidencyTicks::UNDEFINED   2147483750                       # Cumulative time (in ticks) in various power states (Tick)
system.mem_ctrls20.power_state.pwrStateResidencyTicks::UNDEFINED   2147483750                       # Cumulative time (in ticks) in various power states (Tick)
system.mem_ctrls21.power_state.pwrStateResidencyTicks::UNDEFINED   2147483750                       # Cumulative time (in ticks) in various power states (Tick)
system.mem_ctrls22.power_state.pwrStateResidencyTicks::UNDEFINED   2147483750                       # Cumulative time (in ticks) in various power states (Tick)
system.mem_ctrls23.power_state.pwrStateResidencyTicks::UNDEFINED   2147483750                       # Cumulative time (in ticks) in various power states (Tick)
system.mem_ctrls24.power_state.pwrStateResidencyTicks::UNDEFINED   2147483750                       # Cumulative time (in ticks) in various power states (Tick)
system.mem_ctrls25.power_state.pwrStateResidencyTicks::UNDEFINED   2147483750                       # Cumulative time (in ticks) in various power states (Tick)
system.mem_ctrls26.power_state.pwrStateResidencyTicks::UNDEFINED   2147483750                       # Cumulative time (in ticks) in various power states (Tick)
system.mem_ctrls27.power_state.pwrStateResidencyTicks::UNDEFINED   2147483750                       # Cumulative time (in ticks) in various power states (Tick)
system.mem_ctrls28.power_state.pwrStateResidencyTicks::UNDEFINED   2147483750                       # Cumulative time (in ticks) in various power states (Tick)
system.mem_ctrls29.power_state.pwrStateResidencyTicks::UNDEFINED   2147483750                       # Cumulative time (in ticks) in various power states (Tick)
system.mem_ctrls3.power_state.pwrStateResidencyTicks::UNDEFINED   2147483750                       # Cumulative time (in ticks) in various power states (Tick)
system.mem_ctrls30.power_state.pwrStateResidencyTicks::UNDEFINED   2147483750                       # Cumulative time (in ticks) in various power states (Tick)
system.mem_ctrls31.power_state.pwrStateResidencyTicks::UNDEFINED   2147483750                       # Cumulative time (in ticks) in various power states (Tick)
system.mem_ctrls32.power_state.pwrStateResidencyTicks::UNDEFINED   2147483750                       # Cumulative time (in ticks) in various power states (Tick)
system.mem_ctrls33.power_state.pwrStateResidencyTicks::UNDEFINED   2147483750                       # Cumulative time (in ticks) in various power states (Tick)
system.mem_ctrls34.power_state.pwrStateResidencyTicks::UNDEFINED   2147483750                       # Cumulative time (in ticks) in various power states (Tick)
system.mem_ctrls35.power_state.pwrStateResidencyTicks::UNDEFINED   2147483750                       # Cumulative time (in ticks) in various power states (Tick)
system.mem_ctrls36.power_state.pwrStateResidencyTicks::UNDEFINED   2147483750                       # Cumulative time (in ticks) in various power states (Tick)
system.mem_ctrls37.power_state.pwrStateResidencyTicks::UNDEFINED   2147483750                       # Cumulative time (in ticks) in various power states (Tick)
system.mem_ctrls38.power_state.pwrStateResidencyTicks::UNDEFINED   2147483750                       # Cumulative time (in ticks) in various power states (Tick)
system.mem_ctrls39.power_state.pwrStateResidencyTicks::UNDEFINED   2147483750                       # Cumulative time (in ticks) in various power states (Tick)
system.mem_ctrls4.power_state.pwrStateResidencyTicks::UNDEFINED   2147483750                       # Cumulative time (in ticks) in various power states (Tick)
system.mem_ctrls40.power_state.pwrStateResidencyTicks::UNDEFINED   2147483750                       # Cumulative time (in ticks) in various power states (Tick)
system.mem_ctrls41.power_state.pwrStateResidencyTicks::UNDEFINED   2147483750                       # Cumulative time (in ticks) in various power states (Tick)
system.mem_ctrls42.power_state.pwrStateResidencyTicks::UNDEFINED   2147483750                       # Cumulative time (in ticks) in various power states (Tick)
system.mem_ctrls43.power_state.pwrStateResidencyTicks::UNDEFINED   2147483750                       # Cumulative time (in ticks) in various power states (Tick)
system.mem_ctrls44.power_state.pwrStateResidencyTicks::UNDEFINED   2147483750                       # Cumulative time (in ticks) in various power states (Tick)
system.mem_ctrls45.power_state.pwrStateResidencyTicks::UNDEFINED   2147483750                       # Cumulative time (in ticks) in various power states (Tick)
system.mem_ctrls46.power_state.pwrStateResidencyTicks::UNDEFINED   2147483750                       # Cumulative time (in ticks) in various power states (Tick)
system.mem_ctrls47.power_state.pwrStateResidencyTicks::UNDEFINED   2147483750                       # Cumulative time (in ticks) in various power states (Tick)
system.mem_ctrls48.power_state.pwrStateResidencyTicks::UNDEFINED   2147483750                       # Cumulative time (in ticks) in various power states (Tick)
system.mem_ctrls49.power_state.pwrStateResidencyTicks::UNDEFINED   2147483750                       # Cumulative time (in ticks) in various power states (Tick)
system.mem_ctrls5.power_state.pwrStateResidencyTicks::UNDEFINED   2147483750                       # Cumulative time (in ticks) in various power states (Tick)
system.mem_ctrls50.power_state.pwrStateResidencyTicks::UNDEFINED   2147483750                       # Cumulative time (in ticks) in various power states (Tick)
system.mem_ctrls51.power_state.pwrStateResidencyTicks::UNDEFINED   2147483750                       # Cumulative time (in ticks) in various power states (Tick)
system.mem_ctrls52.power_state.pwrStateResidencyTicks::UNDEFINED   2147483750                       # Cumulative time (in ticks) in various power states (Tick)
system.mem_ctrls53.power_state.pwrStateResidencyTicks::UNDEFINED   2147483750                       # Cumulative time (in ticks) in various power states (Tick)
system.mem_ctrls54.power_state.pwrStateResidencyTicks::UNDEFINED   2147483750                       # Cumulative time (in ticks) in various power states (Tick)
system.mem_ctrls55.power_state.pwrStateResidencyTicks::UNDEFINED   2147483750                       # Cumulative time (in ticks) in various power states (Tick)
system.mem_ctrls56.power_state.pwrStateResidencyTicks::UNDEFINED   2147483750                       # Cumulative time (in ticks) in various power states (Tick)
system.mem_ctrls57.power_state.pwrStateResidencyTicks::UNDEFINED   2147483750                       # Cumulative time (in ticks) in various power states (Tick)
system.mem_ctrls58.power_state.pwrStateResidencyTicks::UNDEFINED   2147483750                       # Cumulative time (in ticks) in various power states (Tick)
system.mem_ctrls59.power_state.pwrStateResidencyTicks::UNDEFINED   2147483750                       # Cumulative time (in ticks) in various power states (Tick)
system.mem_ctrls6.power_state.pwrStateResidencyTicks::UNDEFINED   2147483750                       # Cumulative time (in ticks) in various power states (Tick)
system.mem_ctrls60.power_state.pwrStateResidencyTicks::UNDEFINED   2147483750                       # Cumulative time (in ticks) in various power states (Tick)
system.mem_ctrls61.power_state.pwrStateResidencyTicks::UNDEFINED   2147483750                       # Cumulative time (in ticks) in various power states (Tick)
system.mem_ctrls62.power_state.pwrStateResidencyTicks::UNDEFINED   2147483750                       # Cumulative time (in ticks) in various power states (Tick)
system.mem_ctrls63.power_state.pwrStateResidencyTicks::UNDEFINED   2147483750                       # Cumulative time (in ticks) in various power states (Tick)
system.mem_ctrls7.power_state.pwrStateResidencyTicks::UNDEFINED   2147483750                       # Cumulative time (in ticks) in various power states (Tick)
system.mem_ctrls8.power_state.pwrStateResidencyTicks::UNDEFINED   2147483750                       # Cumulative time (in ticks) in various power states (Tick)
system.mem_ctrls9.power_state.pwrStateResidencyTicks::UNDEFINED   2147483750                       # Cumulative time (in ticks) in various power states (Tick)
system.ruby.m_outstandReqHistSeqr::bucket_size            1                       (Unspecified)
system.ruby.m_outstandReqHistSeqr::max_bucket            9                       (Unspecified)
system.ruby.m_outstandReqHistSeqr::samples     71396226                       (Unspecified)
system.ruby.m_outstandReqHistSeqr::mean             1                       (Unspecified)
system.ruby.m_outstandReqHistSeqr::gmean            1                       (Unspecified)
system.ruby.m_outstandReqHistSeqr        |           0      0.00%      0.00% |    71396226    100.00%    100.00% |           0      0.00%    100.00% |           0      0.00%    100.00% |           0      0.00%    100.00% |           0      0.00%    100.00% |           0      0.00%    100.00% |           0      0.00%    100.00% |           0      0.00%    100.00% |           0      0.00%    100.00% (Unspecified)
system.ruby.m_outstandReqHistSeqr::total     71396226                       (Unspecified)
system.ruby.m_latencyHistSeqr::bucket_size            1                       (Unspecified)
system.ruby.m_latencyHistSeqr::max_bucket            9                       (Unspecified)
system.ruby.m_latencyHistSeqr::samples       71396217                       (Unspecified)
system.ruby.m_latencyHistSeqr::mean                 1                       (Unspecified)
system.ruby.m_latencyHistSeqr::gmean                1                       (Unspecified)
system.ruby.m_latencyHistSeqr            |           0      0.00%      0.00% |    71396217    100.00%    100.00% |           0      0.00%    100.00% |           0      0.00%    100.00% |           0      0.00%    100.00% |           0      0.00%    100.00% |           0      0.00%    100.00% |           0      0.00%    100.00% |           0      0.00%    100.00% |           0      0.00%    100.00% (Unspecified)
system.ruby.m_latencyHistSeqr::total         71396217                       (Unspecified)
system.ruby.m_hitLatencyHistSeqr::bucket_size            1                       (Unspecified)
system.ruby.m_hitLatencyHistSeqr::max_bucket            9                       (Unspecified)
system.ruby.m_hitLatencyHistSeqr::samples     71396217                       (Unspecified)
system.ruby.m_hitLatencyHistSeqr::mean              1                       (Unspecified)
system.ruby.m_hitLatencyHistSeqr::gmean             1                       (Unspecified)
system.ruby.m_hitLatencyHistSeqr         |           0      0.00%      0.00% |    71396217    100.00%    100.00% |           0      0.00%    100.00% |           0      0.00%    100.00% |           0      0.00%    100.00% |           0      0.00%    100.00% |           0      0.00%    100.00% |           0      0.00%    100.00% |           0      0.00%    100.00% |           0      0.00%    100.00% (Unspecified)
system.ruby.m_hitLatencyHistSeqr::total      71396217                       (Unspecified)
system.ruby.Directory_Controller.Receive_Request |      370913      1.56%      1.56% |      372108      1.56%      3.12% |      371868      1.56%      4.69% |      372372      1.56%      6.25% |      371652      1.56%      7.81% |      371376      1.56%      9.37% |      370492      1.56%     10.93% |      371686      1.56%     12.49% |      371996      1.56%     14.05% |      372071      1.56%     15.62% |      372048      1.56%     17.18% |      372827      1.57%     18.75% |      372448      1.57%     20.31% |      370896      1.56%     21.87% |      371457      1.56%     23.43% |      372691      1.57%     25.00% |      371242      1.56%     26.56% |      372655      1.57%     28.13% |      372398      1.56%     29.69% |      371744      1.56%     31.25% |      372468      1.57%     32.82% |      371293      1.56%     34.38% |      371564      1.56%     35.94% |      371319      1.56%     37.50% |      371284      1.56%     39.06% |      371054      1.56%     40.62% |      372479      1.57%     42.18% |      370349      1.56%     43.74% |      372624      1.57%     45.31% |      371001      1.56%     46.87% |      372772      1.57%     48.43% |      371282      1.56%     49.99% |      371375      1.56%     51.55% |      371896      1.56%     53.12% |      372260      1.56%     54.68% |      372219      1.56%     56.24% |      372437      1.57%     57.81% |      372208      1.56%     59.37% |      370945      1.56%     60.93% |      371919      1.56%     62.50% |      371423      1.56%     64.06% |      371492      1.56%     65.62% |      372996      1.57%     67.18% |      371363      1.56%     68.75% |      372376      1.56%     70.31% |      372221      1.56%     71.87% |      371365      1.56%     73.43% |      372100      1.56%     75.00% |      370937      1.56%     76.56% |      373084      1.57%     78.12% |      372301      1.56%     79.69% |      372215      1.56%     81.25% |      371617      1.56%     82.82% |      371909      1.56%     84.38% |      371587      1.56%     85.94% |      371020      1.56%     87.50% |      371558      1.56%     89.06% |      370694      1.56%     90.62% |      371662      1.56%     92.18% |      372186      1.56%     93.74% |      371719      1.56%     95.31% |      372443      1.57%     96.87% |      372006      1.56%     98.43% |      372608      1.57%    100.00% (Unspecified)
system.ruby.Directory_Controller.Receive_Request::total     23796570                       (Unspecified)
system.ruby.Directory_Controller.Receive_Forward |      371918      1.56%      1.56% |      371678      1.56%      3.12% |      372321      1.56%      4.69% |      372165      1.56%      6.25% |      372573      1.57%      7.82% |      370864      1.56%      9.38% |      371886      1.56%     10.94% |      371178      1.56%     12.50% |      373038      1.57%     14.07% |      372004      1.56%     15.63% |      372488      1.57%     17.19% |      371327      1.56%     18.76% |      370838      1.56%     20.31% |      372958      1.57%     21.88% |      371660      1.56%     23.44% |      372179      1.56%     25.01% |      372903      1.57%     26.57% |      372270      1.56%     28.14% |      371541      1.56%     29.70% |      371789      1.56%     31.26% |      371857      1.56%     32.82% |      372223      1.56%     34.39% |      370534      1.56%     35.94% |      372001      1.56%     37.51% |      372418      1.56%     39.07% |      371360      1.56%     40.63% |      371957      1.56%     42.20% |      371059      1.56%     43.75% |      370923      1.56%     45.31% |      371577      1.56%     46.87% |      371944      1.56%     48.44% |      371769      1.56%     50.00% |      371353      1.56%     51.56% |      371724      1.56%     53.12% |      372042      1.56%     54.69% |      371610      1.56%     56.25% |      371672      1.56%     57.81% |      373185      1.57%     59.38% |      373026      1.57%     60.94% |      372060      1.56%     62.51% |      372091      1.56%     64.07% |      371413      1.56%     65.63% |      372457      1.57%     67.20% |      370812      1.56%     68.76% |      371506      1.56%     70.32% |      372638      1.57%     71.88% |      371806      1.56%     73.44% |      371457      1.56%     75.01% |      371358      1.56%     76.57% |      372049      1.56%     78.13% |      370601      1.56%     79.69% |      372571      1.57%     81.25% |      371298      1.56%     82.81% |      372599      1.57%     84.38% |      371905      1.56%     85.94% |      371399      1.56%     87.50% |      371916      1.56%     89.06% |      370757      1.56%     90.62% |      372635      1.57%     92.19% |      371347      1.56%     93.75% |      371970      1.56%     95.31% |      372752      1.57%     96.88% |      371842      1.56%     98.44% |      371428      1.56%    100.00% (Unspecified)
system.ruby.Directory_Controller.Receive_Forward::total     23798479                       (Unspecified)
system.ruby.Directory_Controller.Receive_Response |      166669      1.56%      1.56% |      167426      1.56%      3.12% |      166794      1.56%      4.68% |      167296      1.56%      6.24% |      167010      1.56%      7.80% |      167179      1.56%      9.36% |      166325      1.55%     10.92% |      167324      1.56%     12.48% |      166848      1.56%     14.04% |      167563      1.57%     15.60% |      166657      1.56%     17.16% |      166884      1.56%     18.72% |      167457      1.56%     20.29% |      167706      1.57%     21.85% |      167215      1.56%     23.41% |      167360      1.56%     24.98% |      166822      1.56%     26.54% |      167099      1.56%     28.10% |      167496      1.56%     29.66% |      166670      1.56%     31.22% |      167491      1.56%     32.78% |      167237      1.56%     34.35% |      167904      1.57%     35.91% |      168024      1.57%     37.48% |      167082      1.56%     39.04% |      167960      1.57%     40.61% |      167501      1.56%     42.18% |      167067      1.56%     43.74% |      167243      1.56%     45.30% |      167406      1.56%     46.87% |      167112      1.56%     48.43% |      167219      1.56%     49.99% |      167299      1.56%     51.55% |      166964      1.56%     53.11% |      166995      1.56%     54.67% |      167078      1.56%     56.23% |      166867      1.56%     57.79% |      167180      1.56%     59.35% |      167587      1.57%     60.92% |      167712      1.57%     62.48% |      167827      1.57%     64.05% |      166956      1.56%     65.61% |      167487      1.56%     67.18% |      167282      1.56%     68.74% |      167693      1.57%     70.31% |      167495      1.56%     71.87% |      167364      1.56%     73.43% |      167391      1.56%     75.00% |      167232      1.56%     76.56% |      167083      1.56%     78.12% |      166816      1.56%     79.68% |      166907      1.56%     81.24% |      167393      1.56%     82.80% |      167059      1.56%     84.36% |      167435      1.56%     85.93% |      168518      1.57%     87.50% |      166373      1.55%     89.06% |      167644      1.57%     90.62% |      168144      1.57%     92.19% |      167171      1.56%     93.75% |      167706      1.57%     95.32% |      166404      1.55%     96.88% |      167157      1.56%     98.44% |      167283      1.56%    100.00% (Unspecified)
system.ruby.Directory_Controller.Receive_Response::total     10704548                       (Unspecified)
system.ruby.Directory_Controller.I.Receive_Request |      370913      1.56%      1.56% |      372108      1.56%      3.12% |      371868      1.56%      4.69% |      372372      1.56%      6.25% |      371652      1.56%      7.81% |      371376      1.56%      9.37% |      370492      1.56%     10.93% |      371686      1.56%     12.49% |      371996      1.56%     14.05% |      372071      1.56%     15.62% |      372048      1.56%     17.18% |      372827      1.57%     18.75% |      372448      1.57%     20.31% |      370896      1.56%     21.87% |      371457      1.56%     23.43% |      372691      1.57%     25.00% |      371242      1.56%     26.56% |      372655      1.57%     28.13% |      372398      1.56%     29.69% |      371744      1.56%     31.25% |      372468      1.57%     32.82% |      371293      1.56%     34.38% |      371564      1.56%     35.94% |      371319      1.56%     37.50% |      371284      1.56%     39.06% |      371054      1.56%     40.62% |      372479      1.57%     42.18% |      370349      1.56%     43.74% |      372624      1.57%     45.31% |      371001      1.56%     46.87% |      372772      1.57%     48.43% |      371282      1.56%     49.99% |      371375      1.56%     51.55% |      371896      1.56%     53.12% |      372260      1.56%     54.68% |      372219      1.56%     56.24% |      372437      1.57%     57.81% |      372208      1.56%     59.37% |      370945      1.56%     60.93% |      371919      1.56%     62.50% |      371423      1.56%     64.06% |      371492      1.56%     65.62% |      372996      1.57%     67.18% |      371363      1.56%     68.75% |      372376      1.56%     70.31% |      372221      1.56%     71.87% |      371365      1.56%     73.43% |      372100      1.56%     75.00% |      370937      1.56%     76.56% |      373084      1.57%     78.12% |      372301      1.56%     79.69% |      372215      1.56%     81.25% |      371617      1.56%     82.82% |      371909      1.56%     84.38% |      371587      1.56%     85.94% |      371020      1.56%     87.50% |      371558      1.56%     89.06% |      370694      1.56%     90.62% |      371662      1.56%     92.18% |      372186      1.56%     93.74% |      371719      1.56%     95.31% |      372443      1.57%     96.87% |      372006      1.56%     98.43% |      372608      1.57%    100.00% (Unspecified)
system.ruby.Directory_Controller.I.Receive_Request::total     23796570                       (Unspecified)
system.ruby.Directory_Controller.I.Receive_Forward |      371918      1.56%      1.56% |      371678      1.56%      3.12% |      372321      1.56%      4.69% |      372165      1.56%      6.25% |      372573      1.57%      7.82% |      370864      1.56%      9.38% |      371886      1.56%     10.94% |      371178      1.56%     12.50% |      373038      1.57%     14.07% |      372004      1.56%     15.63% |      372488      1.57%     17.19% |      371327      1.56%     18.76% |      370838      1.56%     20.31% |      372958      1.57%     21.88% |      371660      1.56%     23.44% |      372179      1.56%     25.01% |      372903      1.57%     26.57% |      372270      1.56%     28.14% |      371541      1.56%     29.70% |      371789      1.56%     31.26% |      371857      1.56%     32.82% |      372223      1.56%     34.39% |      370534      1.56%     35.94% |      372001      1.56%     37.51% |      372418      1.56%     39.07% |      371360      1.56%     40.63% |      371957      1.56%     42.20% |      371059      1.56%     43.75% |      370923      1.56%     45.31% |      371577      1.56%     46.87% |      371944      1.56%     48.44% |      371769      1.56%     50.00% |      371353      1.56%     51.56% |      371724      1.56%     53.12% |      372042      1.56%     54.69% |      371610      1.56%     56.25% |      371672      1.56%     57.81% |      373185      1.57%     59.38% |      373026      1.57%     60.94% |      372060      1.56%     62.51% |      372091      1.56%     64.07% |      371413      1.56%     65.63% |      372457      1.57%     67.20% |      370812      1.56%     68.76% |      371506      1.56%     70.32% |      372638      1.57%     71.88% |      371806      1.56%     73.44% |      371457      1.56%     75.01% |      371358      1.56%     76.57% |      372049      1.56%     78.13% |      370601      1.56%     79.69% |      372571      1.57%     81.25% |      371298      1.56%     82.81% |      372599      1.57%     84.38% |      371905      1.56%     85.94% |      371399      1.56%     87.50% |      371916      1.56%     89.06% |      370757      1.56%     90.62% |      372635      1.57%     92.19% |      371347      1.56%     93.75% |      371970      1.56%     95.31% |      372752      1.57%     96.88% |      371842      1.56%     98.44% |      371428      1.56%    100.00% (Unspecified)
system.ruby.Directory_Controller.I.Receive_Forward::total     23798479                       (Unspecified)
system.ruby.Directory_Controller.I.Receive_Response |      166669      1.56%      1.56% |      167426      1.56%      3.12% |      166794      1.56%      4.68% |      167296      1.56%      6.24% |      167010      1.56%      7.80% |      167179      1.56%      9.36% |      166325      1.55%     10.92% |      167324      1.56%     12.48% |      166848      1.56%     14.04% |      167563      1.57%     15.60% |      166657      1.56%     17.16% |      166884      1.56%     18.72% |      167457      1.56%     20.29% |      167706      1.57%     21.85% |      167215      1.56%     23.41% |      167360      1.56%     24.98% |      166822      1.56%     26.54% |      167099      1.56%     28.10% |      167496      1.56%     29.66% |      166670      1.56%     31.22% |      167491      1.56%     32.78% |      167237      1.56%     34.35% |      167904      1.57%     35.91% |      168024      1.57%     37.48% |      167082      1.56%     39.04% |      167960      1.57%     40.61% |      167501      1.56%     42.18% |      167067      1.56%     43.74% |      167243      1.56%     45.30% |      167406      1.56%     46.87% |      167112      1.56%     48.43% |      167219      1.56%     49.99% |      167299      1.56%     51.55% |      166964      1.56%     53.11% |      166995      1.56%     54.67% |      167078      1.56%     56.23% |      166867      1.56%     57.79% |      167180      1.56%     59.35% |      167587      1.57%     60.92% |      167712      1.57%     62.48% |      167827      1.57%     64.05% |      166956      1.56%     65.61% |      167487      1.56%     67.18% |      167282      1.56%     68.74% |      167693      1.57%     70.31% |      167495      1.56%     71.87% |      167364      1.56%     73.43% |      167391      1.56%     75.00% |      167232      1.56%     76.56% |      167083      1.56%     78.12% |      166816      1.56%     79.68% |      166907      1.56%     81.24% |      167393      1.56%     82.80% |      167059      1.56%     84.36% |      167435      1.56%     85.93% |      168518      1.57%     87.50% |      166373      1.55%     89.06% |      167644      1.57%     90.62% |      168144      1.57%     92.19% |      167171      1.56%     93.75% |      167706      1.57%     95.32% |      166404      1.55%     96.88% |      167157      1.56%     98.44% |      167283      1.56%    100.00% (Unspecified)
system.ruby.Directory_Controller.I.Receive_Response::total     10704548                       (Unspecified)
system.ruby.L1Cache_Controller.Request   |      371909      1.56%      1.56% |      372337      1.56%      3.13% |      372225      1.56%      4.69% |      372261      1.56%      6.26% |      371707      1.56%      7.82% |      372381      1.56%      9.38% |      372665      1.57%     10.95% |      372798      1.57%     12.52% |      371654      1.56%     14.08% |      370502      1.56%     15.63% |      372585      1.57%     17.20% |      371576      1.56%     18.76% |      371666      1.56%     20.32% |      370934      1.56%     21.88% |      371495      1.56%     23.44% |      372497      1.57%     25.01% |      372102      1.56%     26.57% |      371037      1.56%     28.13% |      371133      1.56%     29.69% |      371583      1.56%     31.25% |      371667      1.56%     32.81% |      372904      1.57%     34.38% |      372442      1.57%     35.95% |      372267      1.56%     37.51% |      372071      1.56%     39.07% |      371796      1.56%     40.64% |      372188      1.56%     42.20% |      372157      1.56%     43.76% |      371641      1.56%     45.33% |      371876      1.56%     46.89% |      371124      1.56%     48.45% |      372702      1.57%     50.01% |      370985      1.56%     51.57% |      372222      1.56%     53.14% |      370837      1.56%     54.70% |      372165      1.56%     56.26% |      370758      1.56%     57.82% |      372747      1.57%     59.38% |      371070      1.56%     60.94% |      371554      1.56%     62.51% |      372381      1.56%     64.07% |      371989      1.56%     65.63% |      371938      1.56%     67.20% |      371653      1.56%     68.76% |      371632      1.56%     70.32% |      372214      1.56%     71.88% |      371634      1.56%     73.45% |      371356      1.56%     75.01% |      371652      1.56%     76.57% |      371658      1.56%     78.13% |      371488      1.56%     79.69% |      371710      1.56%     81.25% |      371636      1.56%     82.81% |      371659      1.56%     84.38% |      371097      1.56%     85.94% |      371844      1.56%     87.50% |      371745      1.56%     89.06% |      371619      1.56%     90.62% |      372467      1.57%     92.19% |      371913      1.56%     93.75% |      372284      1.56%     95.32% |      370963      1.56%     96.87% |      370840      1.56%     98.43% |      373065      1.57%    100.00% (Unspecified)
system.ruby.L1Cache_Controller.Request::total     23796657                       (Unspecified)
system.ruby.L1Cache_Controller.Forward   |      371467      1.56%      1.56% |      372795      1.57%      3.13% |      372178      1.56%      4.69% |      371991      1.56%      6.25% |      371808      1.56%      7.82% |      372707      1.57%      9.38% |      370785      1.56%     10.94% |      371850      1.56%     12.50% |      372048      1.56%     14.07% |      371789      1.56%     15.63% |      371729      1.56%     17.19% |      371684      1.56%     18.75% |      371451      1.56%     20.31% |      372526      1.57%     21.88% |      372161      1.56%     23.44% |      371910      1.56%     25.01% |      370925      1.56%     26.56% |      371973      1.56%     28.13% |      371958      1.56%     29.69% |      371878      1.56%     31.25% |      371321      1.56%     32.81% |      371727      1.56%     34.37% |      370969      1.56%     35.93% |      371757      1.56%     37.50% |      371241      1.56%     39.06% |      371937      1.56%     40.62% |      370851      1.56%     42.18% |      371436      1.56%     43.74% |      372122      1.56%     45.30% |      372656      1.57%     46.87% |      373278      1.57%     48.44% |      372434      1.56%     50.00% |      371905      1.56%     51.56% |      371816      1.56%     53.13% |      372918      1.57%     54.69% |      372977      1.57%     56.26% |      371563      1.56%     57.82% |      372110      1.56%     59.38% |      370941      1.56%     60.94% |      371320      1.56%     62.50% |      371009      1.56%     64.06% |      370330      1.56%     65.62% |      371213      1.56%     67.18% |      372304      1.56%     68.74% |      371958      1.56%     70.31% |      371832      1.56%     71.87% |      372270      1.56%     73.43% |      371512      1.56%     74.99% |      372319      1.56%     76.56% |      371111      1.56%     78.12% |      372256      1.56%     79.68% |      372204      1.56%     81.25% |      371812      1.56%     82.81% |      372258      1.56%     84.37% |      371825      1.56%     85.93% |      372710      1.57%     87.50% |      372045      1.56%     89.06% |      371751      1.56%     90.63% |      371208      1.56%     92.19% |      371693      1.56%     93.75% |      372086      1.56%     95.31% |      371947      1.56%     96.87% |      372792      1.57%     98.44% |      371235      1.56%    100.00% (Unspecified)
system.ruby.L1Cache_Controller.Forward::total     23798572                       (Unspecified)
system.ruby.L1Cache_Controller.Response  |      371730      1.56%      1.56% |      372690      1.57%      3.13% |      372214      1.56%      4.69% |      372069      1.56%      6.25% |      372049      1.56%      7.82% |      371075      1.56%      9.38% |      372943      1.57%     10.94% |      372585      1.57%     12.51% |      372621      1.57%     14.07% |      371285      1.56%     15.63% |      371558      1.56%     17.20% |      372716      1.57%     18.76% |      371762      1.56%     20.32% |      371225      1.56%     21.88% |      372830      1.57%     23.45% |      371364      1.56%     25.01% |      372408      1.56%     26.58% |      372396      1.56%     28.14% |      371943      1.56%     29.70% |      372151      1.56%     31.27% |      371775      1.56%     32.83% |      372538      1.57%     34.39% |      371410      1.56%     35.95% |      371797      1.56%     37.52% |      370937      1.56%     39.07% |      371953      1.56%     40.64% |      371710      1.56%     42.20% |      371749      1.56%     43.76% |      371209      1.56%     45.32% |      371670      1.56%     46.88% |      372081      1.56%     48.45% |      372056      1.56%     50.01% |      370516      1.56%     51.57% |      371920      1.56%     53.13% |      371607      1.56%     54.69% |      373140      1.57%     56.26% |      371585      1.56%     57.82% |      371944      1.56%     59.38% |      371369      1.56%     60.94% |      371693      1.56%     62.50% |      372661      1.57%     64.07% |      371316      1.56%     65.63% |      372010      1.56%     67.19% |      371170      1.56%     68.75% |      371625      1.56%     70.31% |      370622      1.56%     71.87% |      371021      1.56%     73.43% |      372426      1.56%     74.99% |      372252      1.56%     76.56% |      371244      1.56%     78.12% |      372158      1.56%     79.68% |      371039      1.56%     81.24% |      371745      1.56%     82.80% |      371880      1.56%     84.36% |      372266      1.56%     85.93% |      371398      1.56%     87.49% |      372258      1.56%     89.05% |      371566      1.56%     90.61% |      372303      1.56%     92.18% |      371620      1.56%     93.74% |      373292      1.57%     95.31% |      372618      1.57%     96.87% |      371843      1.56%     98.44% |      372382      1.56%    100.00% (Unspecified)
system.ruby.L1Cache_Controller.Response::total     23800988                       (Unspecified)
system.ruby.L1Cache_Controller.I.Request |      371909      1.56%      1.56% |      372337      1.56%      3.13% |      372225      1.56%      4.69% |      372261      1.56%      6.26% |      371707      1.56%      7.82% |      372381      1.56%      9.38% |      372665      1.57%     10.95% |      372798      1.57%     12.52% |      371654      1.56%     14.08% |      370502      1.56%     15.63% |      372585      1.57%     17.20% |      371576      1.56%     18.76% |      371666      1.56%     20.32% |      370934      1.56%     21.88% |      371495      1.56%     23.44% |      372497      1.57%     25.01% |      372102      1.56%     26.57% |      371037      1.56%     28.13% |      371133      1.56%     29.69% |      371583      1.56%     31.25% |      371667      1.56%     32.81% |      372904      1.57%     34.38% |      372442      1.57%     35.95% |      372267      1.56%     37.51% |      372071      1.56%     39.07% |      371796      1.56%     40.64% |      372188      1.56%     42.20% |      372157      1.56%     43.76% |      371641      1.56%     45.33% |      371876      1.56%     46.89% |      371124      1.56%     48.45% |      372702      1.57%     50.01% |      370985      1.56%     51.57% |      372222      1.56%     53.14% |      370837      1.56%     54.70% |      372165      1.56%     56.26% |      370758      1.56%     57.82% |      372747      1.57%     59.38% |      371070      1.56%     60.94% |      371554      1.56%     62.51% |      372381      1.56%     64.07% |      371989      1.56%     65.63% |      371938      1.56%     67.20% |      371653      1.56%     68.76% |      371632      1.56%     70.32% |      372214      1.56%     71.88% |      371634      1.56%     73.45% |      371356      1.56%     75.01% |      371652      1.56%     76.57% |      371658      1.56%     78.13% |      371488      1.56%     79.69% |      371710      1.56%     81.25% |      371636      1.56%     82.81% |      371659      1.56%     84.38% |      371097      1.56%     85.94% |      371844      1.56%     87.50% |      371745      1.56%     89.06% |      371619      1.56%     90.62% |      372467      1.57%     92.19% |      371913      1.56%     93.75% |      372284      1.56%     95.32% |      370963      1.56%     96.87% |      370840      1.56%     98.43% |      373065      1.57%    100.00% (Unspecified)
system.ruby.L1Cache_Controller.I.Request::total     23796657                       (Unspecified)
system.ruby.L1Cache_Controller.I.Forward |      371467      1.56%      1.56% |      372795      1.57%      3.13% |      372178      1.56%      4.69% |      371991      1.56%      6.25% |      371808      1.56%      7.82% |      372707      1.57%      9.38% |      370785      1.56%     10.94% |      371850      1.56%     12.50% |      372048      1.56%     14.07% |      371789      1.56%     15.63% |      371729      1.56%     17.19% |      371684      1.56%     18.75% |      371451      1.56%     20.31% |      372526      1.57%     21.88% |      372161      1.56%     23.44% |      371910      1.56%     25.01% |      370925      1.56%     26.56% |      371973      1.56%     28.13% |      371958      1.56%     29.69% |      371878      1.56%     31.25% |      371321      1.56%     32.81% |      371727      1.56%     34.37% |      370969      1.56%     35.93% |      371757      1.56%     37.50% |      371241      1.56%     39.06% |      371937      1.56%     40.62% |      370851      1.56%     42.18% |      371436      1.56%     43.74% |      372122      1.56%     45.30% |      372656      1.57%     46.87% |      373278      1.57%     48.44% |      372434      1.56%     50.00% |      371905      1.56%     51.56% |      371816      1.56%     53.13% |      372918      1.57%     54.69% |      372977      1.57%     56.26% |      371563      1.56%     57.82% |      372110      1.56%     59.38% |      370941      1.56%     60.94% |      371320      1.56%     62.50% |      371009      1.56%     64.06% |      370330      1.56%     65.62% |      371213      1.56%     67.18% |      372304      1.56%     68.74% |      371958      1.56%     70.31% |      371832      1.56%     71.87% |      372270      1.56%     73.43% |      371512      1.56%     74.99% |      372319      1.56%     76.56% |      371111      1.56%     78.12% |      372256      1.56%     79.68% |      372204      1.56%     81.25% |      371812      1.56%     82.81% |      372258      1.56%     84.37% |      371825      1.56%     85.93% |      372710      1.57%     87.50% |      372045      1.56%     89.06% |      371751      1.56%     90.63% |      371208      1.56%     92.19% |      371693      1.56%     93.75% |      372086      1.56%     95.31% |      371947      1.56%     96.87% |      372792      1.57%     98.44% |      371235      1.56%    100.00% (Unspecified)
system.ruby.L1Cache_Controller.I.Forward::total     23798572                       (Unspecified)
system.ruby.L1Cache_Controller.I.Response |      371730      1.56%      1.56% |      372690      1.57%      3.13% |      372214      1.56%      4.69% |      372069      1.56%      6.25% |      372049      1.56%      7.82% |      371075      1.56%      9.38% |      372943      1.57%     10.94% |      372585      1.57%     12.51% |      372621      1.57%     14.07% |      371285      1.56%     15.63% |      371558      1.56%     17.20% |      372716      1.57%     18.76% |      371762      1.56%     20.32% |      371225      1.56%     21.88% |      372830      1.57%     23.45% |      371364      1.56%     25.01% |      372408      1.56%     26.58% |      372396      1.56%     28.14% |      371943      1.56%     29.70% |      372151      1.56%     31.27% |      371775      1.56%     32.83% |      372538      1.57%     34.39% |      371410      1.56%     35.95% |      371797      1.56%     37.52% |      370937      1.56%     39.07% |      371953      1.56%     40.64% |      371710      1.56%     42.20% |      371749      1.56%     43.76% |      371209      1.56%     45.32% |      371670      1.56%     46.88% |      372081      1.56%     48.45% |      372056      1.56%     50.01% |      370516      1.56%     51.57% |      371920      1.56%     53.13% |      371607      1.56%     54.69% |      373140      1.57%     56.26% |      371585      1.56%     57.82% |      371944      1.56%     59.38% |      371369      1.56%     60.94% |      371693      1.56%     62.50% |      372661      1.57%     64.07% |      371316      1.56%     65.63% |      372010      1.56%     67.19% |      371170      1.56%     68.75% |      371625      1.56%     70.31% |      370622      1.56%     71.87% |      371021      1.56%     73.43% |      372426      1.56%     74.99% |      372252      1.56%     76.56% |      371244      1.56%     78.12% |      372158      1.56%     79.68% |      371039      1.56%     81.24% |      371745      1.56%     82.80% |      371880      1.56%     84.36% |      372266      1.56%     85.93% |      371398      1.56%     87.49% |      372258      1.56%     89.05% |      371566      1.56%     90.61% |      372303      1.56%     92.18% |      371620      1.56%     93.74% |      373292      1.57%     95.31% |      372618      1.57%     96.87% |      371843      1.56%     98.44% |      372382      1.56%    100.00% (Unspecified)
system.ruby.L1Cache_Controller.I.Response::total     23800988                       (Unspecified)
system.ruby.RequestType.LD.latency_hist_seqr::bucket_size            1                       (Unspecified)
system.ruby.RequestType.LD.latency_hist_seqr::max_bucket            9                       (Unspecified)
system.ruby.RequestType.LD.latency_hist_seqr::samples     23796657                       (Unspecified)
system.ruby.RequestType.LD.latency_hist_seqr::mean            1                       (Unspecified)
system.ruby.RequestType.LD.latency_hist_seqr::gmean            1                       (Unspecified)
system.ruby.RequestType.LD.latency_hist_seqr |           0      0.00%      0.00% |    23796657    100.00%    100.00% |           0      0.00%    100.00% |           0      0.00%    100.00% |           0      0.00%    100.00% |           0      0.00%    100.00% |           0      0.00%    100.00% |           0      0.00%    100.00% |           0      0.00%    100.00% |           0      0.00%    100.00% (Unspecified)
system.ruby.RequestType.LD.latency_hist_seqr::total     23796657                       (Unspecified)
system.ruby.RequestType.LD.hit_latency_hist_seqr::bucket_size            1                       (Unspecified)
system.ruby.RequestType.LD.hit_latency_hist_seqr::max_bucket            9                       (Unspecified)
system.ruby.RequestType.LD.hit_latency_hist_seqr::samples     23796657                       (Unspecified)
system.ruby.RequestType.LD.hit_latency_hist_seqr::mean            1                       (Unspecified)
system.ruby.RequestType.LD.hit_latency_hist_seqr::gmean            1                       (Unspecified)
system.ruby.RequestType.LD.hit_latency_hist_seqr |           0      0.00%      0.00% |    23796657    100.00%    100.00% |           0      0.00%    100.00% |           0      0.00%    100.00% |           0      0.00%    100.00% |           0      0.00%    100.00% |           0      0.00%    100.00% |           0      0.00%    100.00% |           0      0.00%    100.00% |           0      0.00%    100.00% (Unspecified)
system.ruby.RequestType.LD.hit_latency_hist_seqr::total     23796657                       (Unspecified)
system.ruby.RequestType.ST.latency_hist_seqr::bucket_size            1                       (Unspecified)
system.ruby.RequestType.ST.latency_hist_seqr::max_bucket            9                       (Unspecified)
system.ruby.RequestType.ST.latency_hist_seqr::samples     23800988                       (Unspecified)
system.ruby.RequestType.ST.latency_hist_seqr::mean            1                       (Unspecified)
system.ruby.RequestType.ST.latency_hist_seqr::gmean            1                       (Unspecified)
system.ruby.RequestType.ST.latency_hist_seqr |           0      0.00%      0.00% |    23800988    100.00%    100.00% |           0      0.00%    100.00% |           0      0.00%    100.00% |           0      0.00%    100.00% |           0      0.00%    100.00% |           0      0.00%    100.00% |           0      0.00%    100.00% |           0      0.00%    100.00% |           0      0.00%    100.00% (Unspecified)
system.ruby.RequestType.ST.latency_hist_seqr::total     23800988                       (Unspecified)
system.ruby.RequestType.ST.hit_latency_hist_seqr::bucket_size            1                       (Unspecified)
system.ruby.RequestType.ST.hit_latency_hist_seqr::max_bucket            9                       (Unspecified)
system.ruby.RequestType.ST.hit_latency_hist_seqr::samples     23800988                       (Unspecified)
system.ruby.RequestType.ST.hit_latency_hist_seqr::mean            1                       (Unspecified)
system.ruby.RequestType.ST.hit_latency_hist_seqr::gmean            1                       (Unspecified)
system.ruby.RequestType.ST.hit_latency_hist_seqr |           0      0.00%      0.00% |    23800988    100.00%    100.00% |           0      0.00%    100.00% |           0      0.00%    100.00% |           0      0.00%    100.00% |           0      0.00%    100.00% |           0      0.00%    100.00% |           0      0.00%    100.00% |           0      0.00%    100.00% |           0      0.00%    100.00% (Unspecified)
system.ruby.RequestType.ST.hit_latency_hist_seqr::total     23800988                       (Unspecified)
system.ruby.RequestType.IFETCH.latency_hist_seqr::bucket_size            1                       (Unspecified)
system.ruby.RequestType.IFETCH.latency_hist_seqr::max_bucket            9                       (Unspecified)
system.ruby.RequestType.IFETCH.latency_hist_seqr::samples     23798572                       (Unspecified)
system.ruby.RequestType.IFETCH.latency_hist_seqr::mean            1                       (Unspecified)
system.ruby.RequestType.IFETCH.latency_hist_seqr::gmean            1                       (Unspecified)
system.ruby.RequestType.IFETCH.latency_hist_seqr |           0      0.00%      0.00% |    23798572    100.00%    100.00% |           0      0.00%    100.00% |           0      0.00%    100.00% |           0      0.00%    100.00% |           0      0.00%    100.00% |           0      0.00%    100.00% |           0      0.00%    100.00% |           0      0.00%    100.00% |           0      0.00%    100.00% (Unspecified)
system.ruby.RequestType.IFETCH.latency_hist_seqr::total     23798572                       (Unspecified)
system.ruby.RequestType.IFETCH.hit_latency_hist_seqr::bucket_size            1                       (Unspecified)
system.ruby.RequestType.IFETCH.hit_latency_hist_seqr::max_bucket            9                       (Unspecified)
system.ruby.RequestType.IFETCH.hit_latency_hist_seqr::samples     23798572                       (Unspecified)
system.ruby.RequestType.IFETCH.hit_latency_hist_seqr::mean            1                       (Unspecified)
system.ruby.RequestType.IFETCH.hit_latency_hist_seqr::gmean            1                       (Unspecified)
system.ruby.RequestType.IFETCH.hit_latency_hist_seqr |           0      0.00%      0.00% |    23798572    100.00%    100.00% |           0      0.00%    100.00% |           0      0.00%    100.00% |           0      0.00%    100.00% |           0      0.00%    100.00% |           0      0.00%    100.00% |           0      0.00%    100.00% |           0      0.00%    100.00% |           0      0.00%    100.00% (Unspecified)
system.ruby.RequestType.IFETCH.hit_latency_hist_seqr::total     23798572                       (Unspecified)
system.ruby.clk_domain.clock                      250                       # Clock period in ticks (Tick)
system.ruby.dir_cntrl0.forwardToDir.m_msg_count       371918                       # Number of messages passed the buffer (Count)
system.ruby.dir_cntrl0.forwardToDir.m_buf_msgs     0.043297                       # Average number of messages in buffer ((Count/Tick))
system.ruby.dir_cntrl0.power_state.pwrStateResidencyTicks::UNDEFINED   2147483750                       # Cumulative time (in ticks) in various power states (Tick)
system.ruby.dir_cntrl0.requestToDir.m_msg_count       370913                       # Number of messages passed the buffer (Count)
system.ruby.dir_cntrl0.requestToDir.m_buf_msgs     0.043180                       # Average number of messages in buffer ((Count/Tick))
system.ruby.dir_cntrl0.responseToDir.m_msg_count       166669                       # Number of messages passed the buffer (Count)
system.ruby.dir_cntrl0.responseToDir.m_buf_msgs     0.019403                       # Average number of messages in buffer ((Count/Tick))
system.ruby.dir_cntrl1.forwardToDir.m_msg_count       371678                       # Number of messages passed the buffer (Count)
system.ruby.dir_cntrl1.forwardToDir.m_buf_msgs     0.043269                       # Average number of messages in buffer ((Count/Tick))
system.ruby.dir_cntrl1.power_state.pwrStateResidencyTicks::UNDEFINED   2147483750                       # Cumulative time (in ticks) in various power states (Tick)
system.ruby.dir_cntrl1.requestToDir.m_msg_count       372108                       # Number of messages passed the buffer (Count)
system.ruby.dir_cntrl1.requestToDir.m_buf_msgs     0.043319                       # Average number of messages in buffer ((Count/Tick))
system.ruby.dir_cntrl1.responseToDir.m_msg_count       167426                       # Number of messages passed the buffer (Count)
system.ruby.dir_cntrl1.responseToDir.m_buf_msgs     0.019491                       # Average number of messages in buffer ((Count/Tick))
system.ruby.dir_cntrl10.forwardToDir.m_msg_count       372488                       # Number of messages passed the buffer (Count)
system.ruby.dir_cntrl10.forwardToDir.m_buf_msgs     0.043363                       # Average number of messages in buffer ((Count/Tick))
system.ruby.dir_cntrl10.power_state.pwrStateResidencyTicks::UNDEFINED   2147483750                       # Cumulative time (in ticks) in various power states (Tick)
system.ruby.dir_cntrl10.requestToDir.m_msg_count       372048                       # Number of messages passed the buffer (Count)
system.ruby.dir_cntrl10.requestToDir.m_buf_msgs     0.043312                       # Average number of messages in buffer ((Count/Tick))
system.ruby.dir_cntrl10.responseToDir.m_msg_count       166657                       # Number of messages passed the buffer (Count)
system.ruby.dir_cntrl10.responseToDir.m_buf_msgs     0.019401                       # Average number of messages in buffer ((Count/Tick))
system.ruby.dir_cntrl11.forwardToDir.m_msg_count       371327                       # Number of messages passed the buffer (Count)
system.ruby.dir_cntrl11.forwardToDir.m_buf_msgs     0.043228                       # Average number of messages in buffer ((Count/Tick))
system.ruby.dir_cntrl11.power_state.pwrStateResidencyTicks::UNDEFINED   2147483750                       # Cumulative time (in ticks) in various power states (Tick)
system.ruby.dir_cntrl11.requestToDir.m_msg_count       372827                       # Number of messages passed the buffer (Count)
system.ruby.dir_cntrl11.requestToDir.m_buf_msgs     0.043403                       # Average number of messages in buffer ((Count/Tick))
system.ruby.dir_cntrl11.responseToDir.m_msg_count       166884                       # Number of messages passed the buffer (Count)
system.ruby.dir_cntrl11.responseToDir.m_buf_msgs     0.019428                       # Average number of messages in buffer ((Count/Tick))
system.ruby.dir_cntrl12.forwardToDir.m_msg_count       370838                       # Number of messages passed the buffer (Count)
system.ruby.dir_cntrl12.forwardToDir.m_buf_msgs     0.043171                       # Average number of messages in buffer ((Count/Tick))
system.ruby.dir_cntrl12.power_state.pwrStateResidencyTicks::UNDEFINED   2147483750                       # Cumulative time (in ticks) in various power states (Tick)
system.ruby.dir_cntrl12.requestToDir.m_msg_count       372448                       # Number of messages passed the buffer (Count)
system.ruby.dir_cntrl12.requestToDir.m_buf_msgs     0.043359                       # Average number of messages in buffer ((Count/Tick))
system.ruby.dir_cntrl12.responseToDir.m_msg_count       167457                       # Number of messages passed the buffer (Count)
system.ruby.dir_cntrl12.responseToDir.m_buf_msgs     0.019495                       # Average number of messages in buffer ((Count/Tick))
system.ruby.dir_cntrl13.forwardToDir.m_msg_count       372958                       # Number of messages passed the buffer (Count)
system.ruby.dir_cntrl13.forwardToDir.m_buf_msgs     0.043418                       # Average number of messages in buffer ((Count/Tick))
system.ruby.dir_cntrl13.power_state.pwrStateResidencyTicks::UNDEFINED   2147483750                       # Cumulative time (in ticks) in various power states (Tick)
system.ruby.dir_cntrl13.requestToDir.m_msg_count       370896                       # Number of messages passed the buffer (Count)
system.ruby.dir_cntrl13.requestToDir.m_buf_msgs     0.043178                       # Average number of messages in buffer ((Count/Tick))
system.ruby.dir_cntrl13.responseToDir.m_msg_count       167706                       # Number of messages passed the buffer (Count)
system.ruby.dir_cntrl13.responseToDir.m_buf_msgs     0.019524                       # Average number of messages in buffer ((Count/Tick))
system.ruby.dir_cntrl14.forwardToDir.m_msg_count       371660                       # Number of messages passed the buffer (Count)
system.ruby.dir_cntrl14.forwardToDir.m_buf_msgs     0.043267                       # Average number of messages in buffer ((Count/Tick))
system.ruby.dir_cntrl14.power_state.pwrStateResidencyTicks::UNDEFINED   2147483750                       # Cumulative time (in ticks) in various power states (Tick)
system.ruby.dir_cntrl14.requestToDir.m_msg_count       371457                       # Number of messages passed the buffer (Count)
system.ruby.dir_cntrl14.requestToDir.m_buf_msgs     0.043243                       # Average number of messages in buffer ((Count/Tick))
system.ruby.dir_cntrl14.responseToDir.m_msg_count       167215                       # Number of messages passed the buffer (Count)
system.ruby.dir_cntrl14.responseToDir.m_buf_msgs     0.019466                       # Average number of messages in buffer ((Count/Tick))
system.ruby.dir_cntrl15.forwardToDir.m_msg_count       372179                       # Number of messages passed the buffer (Count)
system.ruby.dir_cntrl15.forwardToDir.m_buf_msgs     0.043327                       # Average number of messages in buffer ((Count/Tick))
system.ruby.dir_cntrl15.power_state.pwrStateResidencyTicks::UNDEFINED   2147483750                       # Cumulative time (in ticks) in various power states (Tick)
system.ruby.dir_cntrl15.requestToDir.m_msg_count       372691                       # Number of messages passed the buffer (Count)
system.ruby.dir_cntrl15.requestToDir.m_buf_msgs     0.043387                       # Average number of messages in buffer ((Count/Tick))
system.ruby.dir_cntrl15.responseToDir.m_msg_count       167360                       # Number of messages passed the buffer (Count)
system.ruby.dir_cntrl15.responseToDir.m_buf_msgs     0.019483                       # Average number of messages in buffer ((Count/Tick))
system.ruby.dir_cntrl16.forwardToDir.m_msg_count       372903                       # Number of messages passed the buffer (Count)
system.ruby.dir_cntrl16.forwardToDir.m_buf_msgs     0.043412                       # Average number of messages in buffer ((Count/Tick))
system.ruby.dir_cntrl16.power_state.pwrStateResidencyTicks::UNDEFINED   2147483750                       # Cumulative time (in ticks) in various power states (Tick)
system.ruby.dir_cntrl16.requestToDir.m_msg_count       371242                       # Number of messages passed the buffer (Count)
system.ruby.dir_cntrl16.requestToDir.m_buf_msgs     0.043218                       # Average number of messages in buffer ((Count/Tick))
system.ruby.dir_cntrl16.responseToDir.m_msg_count       166822                       # Number of messages passed the buffer (Count)
system.ruby.dir_cntrl16.responseToDir.m_buf_msgs     0.019421                       # Average number of messages in buffer ((Count/Tick))
system.ruby.dir_cntrl17.forwardToDir.m_msg_count       372270                       # Number of messages passed the buffer (Count)
system.ruby.dir_cntrl17.forwardToDir.m_buf_msgs     0.043338                       # Average number of messages in buffer ((Count/Tick))
system.ruby.dir_cntrl17.power_state.pwrStateResidencyTicks::UNDEFINED   2147483750                       # Cumulative time (in ticks) in various power states (Tick)
system.ruby.dir_cntrl17.requestToDir.m_msg_count       372655                       # Number of messages passed the buffer (Count)
system.ruby.dir_cntrl17.requestToDir.m_buf_msgs     0.043383                       # Average number of messages in buffer ((Count/Tick))
system.ruby.dir_cntrl17.responseToDir.m_msg_count       167099                       # Number of messages passed the buffer (Count)
system.ruby.dir_cntrl17.responseToDir.m_buf_msgs     0.019453                       # Average number of messages in buffer ((Count/Tick))
system.ruby.dir_cntrl18.forwardToDir.m_msg_count       371541                       # Number of messages passed the buffer (Count)
system.ruby.dir_cntrl18.forwardToDir.m_buf_msgs     0.043253                       # Average number of messages in buffer ((Count/Tick))
system.ruby.dir_cntrl18.power_state.pwrStateResidencyTicks::UNDEFINED   2147483750                       # Cumulative time (in ticks) in various power states (Tick)
system.ruby.dir_cntrl18.requestToDir.m_msg_count       372398                       # Number of messages passed the buffer (Count)
system.ruby.dir_cntrl18.requestToDir.m_buf_msgs     0.043353                       # Average number of messages in buffer ((Count/Tick))
system.ruby.dir_cntrl18.responseToDir.m_msg_count       167496                       # Number of messages passed the buffer (Count)
system.ruby.dir_cntrl18.responseToDir.m_buf_msgs     0.019499                       # Average number of messages in buffer ((Count/Tick))
system.ruby.dir_cntrl19.forwardToDir.m_msg_count       371789                       # Number of messages passed the buffer (Count)
system.ruby.dir_cntrl19.forwardToDir.m_buf_msgs     0.043282                       # Average number of messages in buffer ((Count/Tick))
system.ruby.dir_cntrl19.power_state.pwrStateResidencyTicks::UNDEFINED   2147483750                       # Cumulative time (in ticks) in various power states (Tick)
system.ruby.dir_cntrl19.requestToDir.m_msg_count       371744                       # Number of messages passed the buffer (Count)
system.ruby.dir_cntrl19.requestToDir.m_buf_msgs     0.043277                       # Average number of messages in buffer ((Count/Tick))
system.ruby.dir_cntrl19.responseToDir.m_msg_count       166670                       # Number of messages passed the buffer (Count)
system.ruby.dir_cntrl19.responseToDir.m_buf_msgs     0.019403                       # Average number of messages in buffer ((Count/Tick))
system.ruby.dir_cntrl2.forwardToDir.m_msg_count       372321                       # Number of messages passed the buffer (Count)
system.ruby.dir_cntrl2.forwardToDir.m_buf_msgs     0.043344                       # Average number of messages in buffer ((Count/Tick))
system.ruby.dir_cntrl2.power_state.pwrStateResidencyTicks::UNDEFINED   2147483750                       # Cumulative time (in ticks) in various power states (Tick)
system.ruby.dir_cntrl2.requestToDir.m_msg_count       371868                       # Number of messages passed the buffer (Count)
system.ruby.dir_cntrl2.requestToDir.m_buf_msgs     0.043291                       # Average number of messages in buffer ((Count/Tick))
system.ruby.dir_cntrl2.responseToDir.m_msg_count       166794                       # Number of messages passed the buffer (Count)
system.ruby.dir_cntrl2.responseToDir.m_buf_msgs     0.019417                       # Average number of messages in buffer ((Count/Tick))
system.ruby.dir_cntrl20.forwardToDir.m_msg_count       371857                       # Number of messages passed the buffer (Count)
system.ruby.dir_cntrl20.forwardToDir.m_buf_msgs     0.043290                       # Average number of messages in buffer ((Count/Tick))
system.ruby.dir_cntrl20.power_state.pwrStateResidencyTicks::UNDEFINED   2147483750                       # Cumulative time (in ticks) in various power states (Tick)
system.ruby.dir_cntrl20.requestToDir.m_msg_count       372468                       # Number of messages passed the buffer (Count)
system.ruby.dir_cntrl20.requestToDir.m_buf_msgs     0.043361                       # Average number of messages in buffer ((Count/Tick))
system.ruby.dir_cntrl20.responseToDir.m_msg_count       167491                       # Number of messages passed the buffer (Count)
system.ruby.dir_cntrl20.responseToDir.m_buf_msgs     0.019499                       # Average number of messages in buffer ((Count/Tick))
system.ruby.dir_cntrl21.forwardToDir.m_msg_count       372223                       # Number of messages passed the buffer (Count)
system.ruby.dir_cntrl21.forwardToDir.m_buf_msgs     0.043332                       # Average number of messages in buffer ((Count/Tick))
system.ruby.dir_cntrl21.power_state.pwrStateResidencyTicks::UNDEFINED   2147483750                       # Cumulative time (in ticks) in various power states (Tick)
system.ruby.dir_cntrl21.requestToDir.m_msg_count       371293                       # Number of messages passed the buffer (Count)
system.ruby.dir_cntrl21.requestToDir.m_buf_msgs     0.043224                       # Average number of messages in buffer ((Count/Tick))
system.ruby.dir_cntrl21.responseToDir.m_msg_count       167237                       # Number of messages passed the buffer (Count)
system.ruby.dir_cntrl21.responseToDir.m_buf_msgs     0.019469                       # Average number of messages in buffer ((Count/Tick))
system.ruby.dir_cntrl22.forwardToDir.m_msg_count       370534                       # Number of messages passed the buffer (Count)
system.ruby.dir_cntrl22.forwardToDir.m_buf_msgs     0.043136                       # Average number of messages in buffer ((Count/Tick))
system.ruby.dir_cntrl22.power_state.pwrStateResidencyTicks::UNDEFINED   2147483750                       # Cumulative time (in ticks) in various power states (Tick)
system.ruby.dir_cntrl22.requestToDir.m_msg_count       371564                       # Number of messages passed the buffer (Count)
system.ruby.dir_cntrl22.requestToDir.m_buf_msgs     0.043256                       # Average number of messages in buffer ((Count/Tick))
system.ruby.dir_cntrl22.responseToDir.m_msg_count       167904                       # Number of messages passed the buffer (Count)
system.ruby.dir_cntrl22.responseToDir.m_buf_msgs     0.019547                       # Average number of messages in buffer ((Count/Tick))
system.ruby.dir_cntrl23.forwardToDir.m_msg_count       372001                       # Number of messages passed the buffer (Count)
system.ruby.dir_cntrl23.forwardToDir.m_buf_msgs     0.043307                       # Average number of messages in buffer ((Count/Tick))
system.ruby.dir_cntrl23.power_state.pwrStateResidencyTicks::UNDEFINED   2147483750                       # Cumulative time (in ticks) in various power states (Tick)
system.ruby.dir_cntrl23.requestToDir.m_msg_count       371319                       # Number of messages passed the buffer (Count)
system.ruby.dir_cntrl23.requestToDir.m_buf_msgs     0.043227                       # Average number of messages in buffer ((Count/Tick))
system.ruby.dir_cntrl23.responseToDir.m_msg_count       168024                       # Number of messages passed the buffer (Count)
system.ruby.dir_cntrl23.responseToDir.m_buf_msgs     0.019561                       # Average number of messages in buffer ((Count/Tick))
system.ruby.dir_cntrl24.forwardToDir.m_msg_count       372418                       # Number of messages passed the buffer (Count)
system.ruby.dir_cntrl24.forwardToDir.m_buf_msgs     0.043355                       # Average number of messages in buffer ((Count/Tick))
system.ruby.dir_cntrl24.power_state.pwrStateResidencyTicks::UNDEFINED   2147483750                       # Cumulative time (in ticks) in various power states (Tick)
system.ruby.dir_cntrl24.requestToDir.m_msg_count       371284                       # Number of messages passed the buffer (Count)
system.ruby.dir_cntrl24.requestToDir.m_buf_msgs     0.043223                       # Average number of messages in buffer ((Count/Tick))
system.ruby.dir_cntrl24.responseToDir.m_msg_count       167082                       # Number of messages passed the buffer (Count)
system.ruby.dir_cntrl24.responseToDir.m_buf_msgs     0.019451                       # Average number of messages in buffer ((Count/Tick))
system.ruby.dir_cntrl25.forwardToDir.m_msg_count       371360                       # Number of messages passed the buffer (Count)
system.ruby.dir_cntrl25.forwardToDir.m_buf_msgs     0.043232                       # Average number of messages in buffer ((Count/Tick))
system.ruby.dir_cntrl25.power_state.pwrStateResidencyTicks::UNDEFINED   2147483750                       # Cumulative time (in ticks) in various power states (Tick)
system.ruby.dir_cntrl25.requestToDir.m_msg_count       371054                       # Number of messages passed the buffer (Count)
system.ruby.dir_cntrl25.requestToDir.m_buf_msgs     0.043196                       # Average number of messages in buffer ((Count/Tick))
system.ruby.dir_cntrl25.responseToDir.m_msg_count       167960                       # Number of messages passed the buffer (Count)
system.ruby.dir_cntrl25.responseToDir.m_buf_msgs     0.019553                       # Average number of messages in buffer ((Count/Tick))
system.ruby.dir_cntrl26.forwardToDir.m_msg_count       371957                       # Number of messages passed the buffer (Count)
system.ruby.dir_cntrl26.forwardToDir.m_buf_msgs     0.043301                       # Average number of messages in buffer ((Count/Tick))
system.ruby.dir_cntrl26.power_state.pwrStateResidencyTicks::UNDEFINED   2147483750                       # Cumulative time (in ticks) in various power states (Tick)
system.ruby.dir_cntrl26.requestToDir.m_msg_count       372479                       # Number of messages passed the buffer (Count)
system.ruby.dir_cntrl26.requestToDir.m_buf_msgs     0.043362                       # Average number of messages in buffer ((Count/Tick))
system.ruby.dir_cntrl26.responseToDir.m_msg_count       167501                       # Number of messages passed the buffer (Count)
system.ruby.dir_cntrl26.responseToDir.m_buf_msgs     0.019500                       # Average number of messages in buffer ((Count/Tick))
system.ruby.dir_cntrl27.forwardToDir.m_msg_count       371059                       # Number of messages passed the buffer (Count)
system.ruby.dir_cntrl27.forwardToDir.m_buf_msgs     0.043197                       # Average number of messages in buffer ((Count/Tick))
system.ruby.dir_cntrl27.power_state.pwrStateResidencyTicks::UNDEFINED   2147483750                       # Cumulative time (in ticks) in various power states (Tick)
[...]
system.ruby.network.sankey.vcvn35.vcvn5             0                       (Unspecified)
system.ruby.network.sankey.vcvn35.vcvn6             0                       (Unspecified)
system.ruby.network.sankey.vcvn35.vcvn7             0                       (Unspecified)
system.ruby.network.sankey.vcvn35.vcvn8             0                       (Unspecified)
system.ruby.network.sankey.vcvn35.vcvn9             0                       (Unspecified)
system.ruby.network.sankey.vcvn4.vcvn0              0                       (Unspecified)
system.ruby.network.sankey.vcvn4.vcvn1              0                       (Unspecified)
system.ruby.network.sankey.vcvn4.vcvn10             0                       (Unspecified)
system.ruby.network.sankey.vcvn4.vcvn11             0                       (Unspecified)
system.ruby.network.sankey.vcvn4.vcvn12             0                       (Unspecified)
system.ruby.network.sankey.vcvn4.vcvn13             0                       (Unspecified)
system.ruby.network.sankey.vcvn4.vcvn14             0                       (Unspecified)
system.ruby.network.sankey.vcvn4.vcvn15             0                       (Unspecified)
system.ruby.network.sankey.vcvn4.vcvn16             0                       (Unspecified)
system.ruby.network.sankey.vcvn4.vcvn17             0                       (Unspecified)
system.ruby.network.sankey.vcvn4.vcvn18             0                       (Unspecified)
system.ruby.network.sankey.vcvn4.vcvn19             0                       (Unspecified)
system.ruby.network.sankey.vcvn4.vcvn2              0                       (Unspecified)
system.ruby.network.sankey.vcvn4.vcvn20             0                       (Unspecified)
system.ruby.network.sankey.vcvn4.vcvn21             0                       (Unspecified)
system.ruby.network.sankey.vcvn4.vcvn22             0                       (Unspecified)
system.ruby.network.sankey.vcvn4.vcvn23             0                       (Unspecified)
system.ruby.network.sankey.vcvn4.vcvn24             0                       (Unspecified)
system.ruby.network.sankey.vcvn4.vcvn25             0                       (Unspecified)
system.ruby.network.sankey.vcvn4.vcvn26             0                       (Unspecified)
system.ruby.network.sankey.vcvn4.vcvn27             0                       (Unspecified)
system.ruby.network.sankey.vcvn4.vcvn28             0                       (Unspecified)
system.ruby.network.sankey.vcvn4.vcvn29             0                       (Unspecified)
system.ruby.network.sankey.vcvn4.vcvn3              0                       (Unspecified)
system.ruby.network.sankey.vcvn4.vcvn30             0                       (Unspecified)
system.ruby.network.sankey.vcvn4.vcvn31             0                       (Unspecified)
system.ruby.network.sankey.vcvn4.vcvn32             0                       (Unspecified)
system.ruby.network.sankey.vcvn4.vcvn33             0                       (Unspecified)
system.ruby.network.sankey.vcvn4.vcvn34             0                       (Unspecified)
system.ruby.network.sankey.vcvn4.vcvn35             0                       (Unspecified)
system.ruby.network.sankey.vcvn4.vcvn4        1744318                       (Unspecified)
system.ruby.network.sankey.vcvn4.vcvn5              0                       (Unspecified)
system.ruby.network.sankey.vcvn4.vcvn6              0                       (Unspecified)
system.ruby.network.sankey.vcvn4.vcvn7              0                       (Unspecified)
system.ruby.network.sankey.vcvn4.vcvn8              0                       (Unspecified)
system.ruby.network.sankey.vcvn4.vcvn9              0                       (Unspecified)
system.ruby.network.sankey.vcvn5.vcvn0              0                       (Unspecified)
system.ruby.network.sankey.vcvn5.vcvn1              0                       (Unspecified)
system.ruby.network.sankey.vcvn5.vcvn10             0                       (Unspecified)
system.ruby.network.sankey.vcvn5.vcvn11             0                       (Unspecified)
system.ruby.network.sankey.vcvn5.vcvn12             0                       (Unspecified)
system.ruby.network.sankey.vcvn5.vcvn13             0                       (Unspecified)
system.ruby.network.sankey.vcvn5.vcvn14             0                       (Unspecified)
system.ruby.network.sankey.vcvn5.vcvn15             0                       (Unspecified)
system.ruby.network.sankey.vcvn5.vcvn16             0                       (Unspecified)
system.ruby.network.sankey.vcvn5.vcvn17             0                       (Unspecified)
system.ruby.network.sankey.vcvn5.vcvn18             0                       (Unspecified)
system.ruby.network.sankey.vcvn5.vcvn19             0                       (Unspecified)
system.ruby.network.sankey.vcvn5.vcvn2              0                       (Unspecified)
system.ruby.network.sankey.vcvn5.vcvn20             0                       (Unspecified)
system.ruby.network.sankey.vcvn5.vcvn21             0                       (Unspecified)
system.ruby.network.sankey.vcvn5.vcvn22             0                       (Unspecified)
system.ruby.network.sankey.vcvn5.vcvn23             0                       (Unspecified)
system.ruby.network.sankey.vcvn5.vcvn24             0                       (Unspecified)
system.ruby.network.sankey.vcvn5.vcvn25             0                       (Unspecified)
system.ruby.network.sankey.vcvn5.vcvn26             0                       (Unspecified)
system.ruby.network.sankey.vcvn5.vcvn27             0                       (Unspecified)
system.ruby.network.sankey.vcvn5.vcvn28             0                       (Unspecified)
system.ruby.network.sankey.vcvn5.vcvn29             0                       (Unspecified)
system.ruby.network.sankey.vcvn5.vcvn3              0                       (Unspecified)
system.ruby.network.sankey.vcvn5.vcvn30             0                       (Unspecified)
system.ruby.network.sankey.vcvn5.vcvn31             0                       (Unspecified)
system.ruby.network.sankey.vcvn5.vcvn32             0                       (Unspecified)
system.ruby.network.sankey.vcvn5.vcvn33             0                       (Unspecified)
system.ruby.network.sankey.vcvn5.vcvn34             0                       (Unspecified)
system.ruby.network.sankey.vcvn5.vcvn35             0                       (Unspecified)
system.ruby.network.sankey.vcvn5.vcvn4              0                       (Unspecified)
system.ruby.network.sankey.vcvn5.vcvn5        1476624                       (Unspecified)
system.ruby.network.sankey.vcvn5.vcvn6              0                       (Unspecified)
system.ruby.network.sankey.vcvn5.vcvn7              0                       (Unspecified)
system.ruby.network.sankey.vcvn5.vcvn8              0                       (Unspecified)
system.ruby.network.sankey.vcvn5.vcvn9              0                       (Unspecified)
system.ruby.network.sankey.vcvn6.vcvn0              0                       (Unspecified)
system.ruby.network.sankey.vcvn6.vcvn1              0                       (Unspecified)
system.ruby.network.sankey.vcvn6.vcvn10             0                       (Unspecified)
system.ruby.network.sankey.vcvn6.vcvn11             0                       (Unspecified)
system.ruby.network.sankey.vcvn6.vcvn12             0                       (Unspecified)
system.ruby.network.sankey.vcvn6.vcvn13             0                       (Unspecified)
system.ruby.network.sankey.vcvn6.vcvn14             0                       (Unspecified)
system.ruby.network.sankey.vcvn6.vcvn15             0                       (Unspecified)
system.ruby.network.sankey.vcvn6.vcvn16             0                       (Unspecified)
system.ruby.network.sankey.vcvn6.vcvn17             0                       (Unspecified)
system.ruby.network.sankey.vcvn6.vcvn18             0                       (Unspecified)
system.ruby.network.sankey.vcvn6.vcvn19             0                       (Unspecified)
system.ruby.network.sankey.vcvn6.vcvn2              0                       (Unspecified)
system.ruby.network.sankey.vcvn6.vcvn20             0                       (Unspecified)
system.ruby.network.sankey.vcvn6.vcvn21             0                       (Unspecified)
system.ruby.network.sankey.vcvn6.vcvn22             0                       (Unspecified)
system.ruby.network.sankey.vcvn6.vcvn23             0                       (Unspecified)
system.ruby.network.sankey.vcvn6.vcvn24             0                       (Unspecified)
system.ruby.network.sankey.vcvn6.vcvn25             0                       (Unspecified)
system.ruby.network.sankey.vcvn6.vcvn26             0                       (Unspecified)
system.ruby.network.sankey.vcvn6.vcvn27             0                       (Unspecified)
system.ruby.network.sankey.vcvn6.vcvn28             0                       (Unspecified)
system.ruby.network.sankey.vcvn6.vcvn29             0                       (Unspecified)
system.ruby.network.sankey.vcvn6.vcvn3              0                       (Unspecified)
system.ruby.network.sankey.vcvn6.vcvn30             0                       (Unspecified)
system.ruby.network.sankey.vcvn6.vcvn31             0                       (Unspecified)
system.ruby.network.sankey.vcvn6.vcvn32             0                       (Unspecified)
system.ruby.network.sankey.vcvn6.vcvn33             0                       (Unspecified)
system.ruby.network.sankey.vcvn6.vcvn34             0                       (Unspecified)
system.ruby.network.sankey.vcvn6.vcvn35             0                       (Unspecified)
system.ruby.network.sankey.vcvn6.vcvn4              0                       (Unspecified)
system.ruby.network.sankey.vcvn6.vcvn5              0                       (Unspecified)
system.ruby.network.sankey.vcvn6.vcvn6        1172047                       (Unspecified)
system.ruby.network.sankey.vcvn6.vcvn7              0                       (Unspecified)
system.ruby.network.sankey.vcvn6.vcvn8              0                       (Unspecified)
system.ruby.network.sankey.vcvn6.vcvn9              0                       (Unspecified)
system.ruby.network.sankey.vcvn7.vcvn0              0                       (Unspecified)
system.ruby.network.sankey.vcvn7.vcvn1              0                       (Unspecified)
system.ruby.network.sankey.vcvn7.vcvn10             0                       (Unspecified)
system.ruby.network.sankey.vcvn7.vcvn11             0                       (Unspecified)
system.ruby.network.sankey.vcvn7.vcvn12             0                       (Unspecified)
system.ruby.network.sankey.vcvn7.vcvn13             0                       (Unspecified)
system.ruby.network.sankey.vcvn7.vcvn14             0                       (Unspecified)
system.ruby.network.sankey.vcvn7.vcvn15             0                       (Unspecified)
system.ruby.network.sankey.vcvn7.vcvn16             0                       (Unspecified)
system.ruby.network.sankey.vcvn7.vcvn17             0                       (Unspecified)
system.ruby.network.sankey.vcvn7.vcvn18             0                       (Unspecified)
system.ruby.network.sankey.vcvn7.vcvn19             0                       (Unspecified)
system.ruby.network.sankey.vcvn7.vcvn2              0                       (Unspecified)
system.ruby.network.sankey.vcvn7.vcvn20             0                       (Unspecified)
system.ruby.network.sankey.vcvn7.vcvn21             0                       (Unspecified)
system.ruby.network.sankey.vcvn7.vcvn22             0                       (Unspecified)
system.ruby.network.sankey.vcvn7.vcvn23             0                       (Unspecified)
system.ruby.network.sankey.vcvn7.vcvn24             0                       (Unspecified)
system.ruby.network.sankey.vcvn7.vcvn25             0                       (Unspecified)
system.ruby.network.sankey.vcvn7.vcvn26             0                       (Unspecified)
system.ruby.network.sankey.vcvn7.vcvn27             0                       (Unspecified)
system.ruby.network.sankey.vcvn7.vcvn28             0                       (Unspecified)
system.ruby.network.sankey.vcvn7.vcvn29             0                       (Unspecified)
system.ruby.network.sankey.vcvn7.vcvn3              0                       (Unspecified)
system.ruby.network.sankey.vcvn7.vcvn30             0                       (Unspecified)
system.ruby.network.sankey.vcvn7.vcvn31             0                       (Unspecified)
system.ruby.network.sankey.vcvn7.vcvn32             0                       (Unspecified)
system.ruby.network.sankey.vcvn7.vcvn33             0                       (Unspecified)
system.ruby.network.sankey.vcvn7.vcvn34             0                       (Unspecified)
system.ruby.network.sankey.vcvn7.vcvn35             0                       (Unspecified)
system.ruby.network.sankey.vcvn7.vcvn4              0                       (Unspecified)
system.ruby.network.sankey.vcvn7.vcvn5              0                       (Unspecified)
system.ruby.network.sankey.vcvn7.vcvn6              0                       (Unspecified)
system.ruby.network.sankey.vcvn7.vcvn7        1695042                       (Unspecified)
system.ruby.network.sankey.vcvn7.vcvn8              0                       (Unspecified)
system.ruby.network.sankey.vcvn7.vcvn9              0                       (Unspecified)
system.ruby.network.sankey.vcvn8.vcvn0              0                       (Unspecified)
system.ruby.network.sankey.vcvn8.vcvn1              0                       (Unspecified)
system.ruby.network.sankey.vcvn8.vcvn10             0                       (Unspecified)
system.ruby.network.sankey.vcvn8.vcvn11             0                       (Unspecified)
system.ruby.network.sankey.vcvn8.vcvn12             0                       (Unspecified)
system.ruby.network.sankey.vcvn8.vcvn13             0                       (Unspecified)
system.ruby.network.sankey.vcvn8.vcvn14             0                       (Unspecified)
system.ruby.network.sankey.vcvn8.vcvn15             0                       (Unspecified)
system.ruby.network.sankey.vcvn8.vcvn16             0                       (Unspecified)
system.ruby.network.sankey.vcvn8.vcvn17             0                       (Unspecified)
system.ruby.network.sankey.vcvn8.vcvn18             0                       (Unspecified)
system.ruby.network.sankey.vcvn8.vcvn19             0                       (Unspecified)
system.ruby.network.sankey.vcvn8.vcvn2              0                       (Unspecified)
system.ruby.network.sankey.vcvn8.vcvn20             0                       (Unspecified)
system.ruby.network.sankey.vcvn8.vcvn21             0                       (Unspecified)
system.ruby.network.sankey.vcvn8.vcvn22             0                       (Unspecified)
system.ruby.network.sankey.vcvn8.vcvn23             0                       (Unspecified)
system.ruby.network.sankey.vcvn8.vcvn24             0                       (Unspecified)
system.ruby.network.sankey.vcvn8.vcvn25             0                       (Unspecified)
system.ruby.network.sankey.vcvn8.vcvn26             0                       (Unspecified)
system.ruby.network.sankey.vcvn8.vcvn27             0                       (Unspecified)
system.ruby.network.sankey.vcvn8.vcvn28             0                       (Unspecified)
system.ruby.network.sankey.vcvn8.vcvn29             0                       (Unspecified)
system.ruby.network.sankey.vcvn8.vcvn3              0                       (Unspecified)
system.ruby.network.sankey.vcvn8.vcvn30             0                       (Unspecified)
system.ruby.network.sankey.vcvn8.vcvn31             0                       (Unspecified)
system.ruby.network.sankey.vcvn8.vcvn32             0                       (Unspecified)
system.ruby.network.sankey.vcvn8.vcvn33             0                       (Unspecified)
system.ruby.network.sankey.vcvn8.vcvn34             0                       (Unspecified)
system.ruby.network.sankey.vcvn8.vcvn35             0                       (Unspecified)
system.ruby.network.sankey.vcvn8.vcvn4              0                       (Unspecified)
system.ruby.network.sankey.vcvn8.vcvn5              0                       (Unspecified)
system.ruby.network.sankey.vcvn8.vcvn6              0                       (Unspecified)
system.ruby.network.sankey.vcvn8.vcvn7              0                       (Unspecified)
system.ruby.network.sankey.vcvn8.vcvn8        1946712                       (Unspecified)
system.ruby.network.sankey.vcvn8.vcvn9              0                       (Unspecified)
system.ruby.network.sankey.vcvn9.vcvn0              0                       (Unspecified)
system.ruby.network.sankey.vcvn9.vcvn1              0                       (Unspecified)
system.ruby.network.sankey.vcvn9.vcvn10             0                       (Unspecified)
system.ruby.network.sankey.vcvn9.vcvn11             0                       (Unspecified)
system.ruby.network.sankey.vcvn9.vcvn12             0                       (Unspecified)
system.ruby.network.sankey.vcvn9.vcvn13             0                       (Unspecified)
system.ruby.network.sankey.vcvn9.vcvn14             0                       (Unspecified)
system.ruby.network.sankey.vcvn9.vcvn15             0                       (Unspecified)
system.ruby.network.sankey.vcvn9.vcvn16             0                       (Unspecified)
system.ruby.network.sankey.vcvn9.vcvn17             0                       (Unspecified)
system.ruby.network.sankey.vcvn9.vcvn18             0                       (Unspecified)
system.ruby.network.sankey.vcvn9.vcvn19             0                       (Unspecified)
system.ruby.network.sankey.vcvn9.vcvn2              0                       (Unspecified)
system.ruby.network.sankey.vcvn9.vcvn20             0                       (Unspecified)
system.ruby.network.sankey.vcvn9.vcvn21             0                       (Unspecified)
system.ruby.network.sankey.vcvn9.vcvn22             0                       (Unspecified)
system.ruby.network.sankey.vcvn9.vcvn23             0                       (Unspecified)
system.ruby.network.sankey.vcvn9.vcvn24             0                       (Unspecified)
system.ruby.network.sankey.vcvn9.vcvn25             0                       (Unspecified)
system.ruby.network.sankey.vcvn9.vcvn26             0                       (Unspecified)
system.ruby.network.sankey.vcvn9.vcvn27             0                       (Unspecified)
system.ruby.network.sankey.vcvn9.vcvn28             0                       (Unspecified)
system.ruby.network.sankey.vcvn9.vcvn29             0                       (Unspecified)
system.ruby.network.sankey.vcvn9.vcvn3              0                       (Unspecified)
system.ruby.network.sankey.vcvn9.vcvn30             0                       (Unspecified)
system.ruby.network.sankey.vcvn9.vcvn31             0                       (Unspecified)
system.ruby.network.sankey.vcvn9.vcvn32             0                       (Unspecified)
system.ruby.network.sankey.vcvn9.vcvn33             0                       (Unspecified)
system.ruby.network.sankey.vcvn9.vcvn34             0                       (Unspecified)
system.ruby.network.sankey.vcvn9.vcvn35             0                       (Unspecified)
system.ruby.network.sankey.vcvn9.vcvn4              0                       (Unspecified)
system.ruby.network.sankey.vcvn9.vcvn5              0                       (Unspecified)
system.ruby.network.sankey.vcvn9.vcvn6              0                       (Unspecified)
system.ruby.network.sankey.vcvn9.vcvn7              0                       (Unspecified)
system.ruby.network.sankey.vcvn9.vcvn8              0                       (Unspecified)
system.ruby.network.sankey.vcvn9.vcvn9        1641435                       (Unspecified)

---------- End Simulation Statistics   ----------
