
---------- Begin Simulation Statistics ----------
simSeconds                                   0.002147                       # Number of seconds simulated (Second)
simTicks                                   2147483750                       # Number of ticks simulated (Tick)
finalTick                                  2147483750                       # Number of ticks from beginning of simulation (restored from checkpoints and never reset) (Tick)
simFreq                                  1000000000000                       # The number of ticks per simulated second ((Tick/Second))
hostSeconds                                   6776.80                       # Real time elapsed on the host (Second)
hostTickRate                                   316888                       # The number of ticks simulated per host second (ticks/s) ((Tick/Second))
hostMemory                                    8588060                       # Number of bytes of host memory used (Byte)
system.clk_domain.clock                           250                       # Clock period in ticks (Tick)
system.cpu0.power_state.pwrStateResidencyTicks::UNDEFINED   2147483750                       # Cumulative time (in ticks) in various power states (Tick)
system.cpu1.power_state.pwrStateResidencyTicks::UNDEFINED   2147483750                       # Cumulative time (in ticks) in various power states (Tick)
system.cpu10.power_state.pwrStateResidencyTicks::UNDEFINED   2147483750                       # Cumulative time (in ticks) in various power states (Tick)
system.cpu11.power_state.pwrStateResidencyTicks::UNDEFINED   2147483750                       # Cumulative time (in ticks) in various power states (Tick)
system.cpu12.power_state.pwrStateResidencyTicks::UNDEFINED   2147483750                       # Cumulative time (in ticks) in various power states (Tick)
system.cpu13.power_state.pwrStateResidencyTicks::UNDEFINED   2147483750                       # Cumulative time (in ticks) in various power states (Tick)
system.cpu14.power_state.pwrStateResidencyTicks::UNDEFINED   2147483750                       # Cumulative time (in ticks) in various power states (Tick)
system.cpu15.power_state.pwrStateResidencyTicks::UNDEFINED   2147483750                       # Cumulative time (in ticks) in various power states (Tick)
system.cpu16.power_state.pwrStateResidencyTicks::UNDEFINED   2147483750                       # Cumulative time (in ticks) in various power states (Tick)
system.cpu17.power_state.pwrStateResidencyTicks::UNDEFINED   2147483750                       # Cumulative time (in ticks) in various power states (Tick)
system.cpu18.power_state.pwrStateResidencyTicks::UNDEFINED   2147483750                       # Cumulative time (in ticks) in various power states (Tick)
system.cpu19.power_state.pwrStateResidencyTicks::UNDEFINED   2147483750                       # Cumulative time (in ticks) in various power states (Tick)
system.cpu2.power_state.pwrStateResidencyTicks::UNDEFINED   2147483750                       # Cumulative time (in ticks) in various power states (Tick)
system.cpu20.power_state.pwrStateResidencyTicks::UNDEFINED   2147483750                       # Cumulative time (in ticks) in various power states (Tick)
system.cpu21.power_state.pwrStateResidencyTicks::UNDEFINED   2147483750                       # Cumulative time (in ticks) in various power states (Tick)
system.cpu22.power_state.pwrStateResidencyTicks::UNDEFINED   2147483750                       # Cumulative time (in ticks) in various power states (Tick)
system.cpu23.power_state.pwrStateResidencyTicks::UNDEFINED   2147483750                       # Cumulative time (in ticks) in various power states (Tick)
system.cpu24.power_state.pwrStateResidencyTicks::UNDEFINED   2147483750                       # Cumulative time (in ticks) in various power states (Tick)
system.cpu25.power_state.pwrStateResidencyTicks::UNDEFINED   2147483750                       # Cumulative time (in ticks) in various power states (Tick)
system.cpu26.power_state.pwrStateResidencyTicks::UNDEFINED   2147483750                       # Cumulative time (in ticks) in various power states (Tick)
system.cpu27.power_state.pwrStateResidencyTicks::UNDEFINED   2147483750                       # Cumulative time (in ticks) in various power states (Tick)
system.cpu28.power_state.pwrStateResidencyTicks::UNDEFINED   2147483750                       # Cumulative time (in ticks) in various power states (Tick)
system.cpu29.power_state.pwrStateResidencyTicks::UNDEFINED   2147483750                       # Cumulative time (in ticks) in various power states (Tick)
system.cpu3.power_state.pwrStateResidencyTicks::UNDEFINED   2147483750                       # Cumulative time (in ticks) in various power states (Tick)
system.cpu30.power_state.pwrStateResidencyTicks::UNDEFINED   2147483750                       # Cumulative time (in ticks) in various power states (Tick)
system.cpu31.power_state.pwrStateResidencyTicks::UNDEFINED   2147483750                       # Cumulative time (in ticks) in various power states (Tick)
system.cpu32.power_state.pwrStateResidencyTicks::UNDEFINED   2147483750                       # Cumulative time (in ticks) in various power states (Tick)
system.cpu33.power_state.pwrStateResidencyTicks::UNDEFINED   2147483750                       # Cumulative time (in ticks) in various power states (Tick)
system.cpu34.power_state.pwrStateResidencyTicks::UNDEFINED   2147483750                       # Cumulative time (in ticks) in various power states (Tick)
system.cpu35.power_state.pwrStateResidencyTicks::UNDEFINED   2147483750                       # Cumulative time (in ticks) in various power states (Tick)
system.cpu36.power_state.pwrStateResidencyTicks::UNDEFINED   2147483750                       # Cumulative time (in ticks) in various power states (Tick)
system.cpu37.power_state.pwrStateResidencyTicks::UNDEFINED   2147483750                       # Cumulative time (in ticks) in various power states (Tick)
system.cpu38.power_state.pwrStateResidencyTicks::UNDEFINED   2147483750                       # Cumulative time (in ticks) in various power states (Tick)
system.cpu39.power_state.pwrStateResidencyTicks::UNDEFINED   2147483750                       # Cumulative time (in ticks) in various power states (Tick)
system.cpu4.power_state.pwrStateResidencyTicks::UNDEFINED   2147483750                       # Cumulative time (in ticks) in various power states (Tick)
system.cpu5.power_state.pwrStateResidencyTicks::UNDEFINED   2147483750                       # Cumulative time (in ticks) in various power states (Tick)
system.cpu6.power_state.pwrStateResidencyTicks::UNDEFINED   2147483750                       # Cumulative time (in ticks) in various power states (Tick)
system.cpu7.power_state.pwrStateResidencyTicks::UNDEFINED   2147483750                       # Cumulative time (in ticks) in various power states (Tick)
system.cpu8.power_state.pwrStateResidencyTicks::UNDEFINED   2147483750                       # Cumulative time (in ticks) in various power states (Tick)
system.cpu9.power_state.pwrStateResidencyTicks::UNDEFINED   2147483750                       # Cumulative time (in ticks) in various power states (Tick)
system.mem_ctrls0.power_state.pwrStateResidencyTicks::UNDEFINED   2147483750                       # Cumulative time (in ticks) in various power states (Tick)
system.mem_ctrls1.power_state.pwrStateResidencyTicks::UNDEFINED   2147483750                       # Cumulative time (in ticks) in various power states (Tick)
system.mem_ctrls10.power_state.pwrStateResidencyTicks::UNDEFINED   2147483750                       # Cumulative time (in ticks) in various power states (Tick)
system.mem_ctrls100.power_state.pwrStateResidencyTicks::UNDEFINED   2147483750                       # Cumulative time (in ticks) in various power states (Tick)
system.mem_ctrls101.power_state.pwrStateResidencyTicks::UNDEFINED   2147483750                       # Cumulative time (in ticks) in various power states (Tick)
system.mem_ctrls102.power_state.pwrStateResidencyTicks::UNDEFINED   2147483750                       # Cumulative time (in ticks) in various power states (Tick)
system.mem_ctrls103.power_state.pwrStateResidencyTicks::UNDEFINED   2147483750                       # Cumulative time (in ticks) in various power states (Tick)
system.mem_ctrls104.power_state.pwrStateResidencyTicks::UNDEFINED   2147483750                       # Cumulative time (in ticks) in various power states (Tick)
system.mem_ctrls105.power_state.pwrStateResidencyTicks::UNDEFINED   2147483750                       # Cumulative time (in ticks) in various power states (Tick)
system.mem_ctrls106.power_state.pwrStateResidencyTicks::UNDEFINED   2147483750                       # Cumulative time (in ticks) in various power states (Tick)
system.mem_ctrls107.power_state.pwrStateResidencyTicks::UNDEFINED   2147483750                       # Cumulative time (in ticks) in various power states (Tick)
system.mem_ctrls108.power_state.pwrStateResidencyTicks::UNDEFINED   2147483750                       # Cumulative time (in ticks) in various power states (Tick)
system.mem_ctrls109.power_state.pwrStateResidencyTicks::UNDEFINED   2147483750                       # Cumulative time (in ticks) in various power states (Tick)
system.mem_ctrls11.power_state.pwrStateResidencyTicks::UNDEFINED   2147483750                       # Cumulative time (in ticks) in various power states (Tick)
system.mem_ctrls110.power_state.pwrStateResidencyTicks::UNDEFINED   2147483750                       # Cumulative time (in ticks) in various power states (Tick)
system.mem_ctrls111.power_state.pwrStateResidencyTicks::UNDEFINED   2147483750                       # Cumulative time (in ticks) in various power states (Tick)
system.mem_ctrls112.power_state.pwrStateResidencyTicks::UNDEFINED   2147483750                       # Cumulative time (in ticks) in various power states (Tick)
system.mem_ctrls113.power_state.pwrStateResidencyTicks::UNDEFINED   2147483750                       # Cumulative time (in ticks) in various power states (Tick)
system.mem_ctrls114.power_state.pwrStateResidencyTicks::UNDEFINED   2147483750                       # Cumulative time (in ticks) in various power states (Tick)
system.mem_ctrls115.power_state.pwrStateResidencyTicks::UNDEFINED   2147483750                       # Cumulative time (in ticks) in various power states (Tick)
system.mem_ctrls116.power_state.pwrStateResidencyTicks::UNDEFINED   2147483750                       # Cumulative time (in ticks) in various power states (Tick)
system.mem_ctrls117.power_state.pwrStateResidencyTicks::UNDEFINED   2147483750                       # Cumulative time (in ticks) in various power states (Tick)
system.mem_ctrls118.power_state.pwrStateResidencyTicks::UNDEFINED   2147483750                       # Cumulative time (in ticks) in various power states (Tick)
system.mem_ctrls119.power_state.pwrStateResidencyTicks::UNDEFINED   2147483750                       # Cumulative time (in ticks) in various power states (Tick)
system.mem_ctrls12.power_state.pwrStateResidencyTicks::UNDEFINED   2147483750                       # Cumulative time (in ticks) in various power states (Tick)
system.mem_ctrls120.power_state.pwrStateResidencyTicks::UNDEFINED   2147483750                       # Cumulative time (in ticks) in various power states (Tick)
system.mem_ctrls121.power_state.pwrStateResidencyTicks::UNDEFINED   2147483750                       # Cumulative time (in ticks) in various power states (Tick)
system.mem_ctrls122.power_state.pwrStateResidencyTicks::UNDEFINED   2147483750                       # Cumulative time (in ticks) in various power states (Tick)
system.mem_ctrls123.power_state.pwrStateResidencyTicks::UNDEFINED   2147483750                       # Cumulative time (in ticks) in various power states (Tick)
system.mem_ctrls124.power_state.pwrStateResidencyTicks::UNDEFINED   2147483750                       # Cumulative time (in ticks) in various power states (Tick)
system.mem_ctrls125.power_state.pwrStateResidencyTicks::UNDEFINED   2147483750                       # Cumulative time (in ticks) in various power states (Tick)
system.mem_ctrls126.power_state.pwrStateResidencyTicks::UNDEFINED   2147483750                       # Cumulative time (in ticks) in various power states (Tick)
system.mem_ctrls127.power_state.pwrStateResidencyTicks::UNDEFINED   2147483750                       # Cumulative time (in ticks) in various power states (Tick)
system.mem_ctrls128.power_state.pwrStateResidencyTicks::UNDEFINED   2147483750                       # Cumulative time (in ticks) in various power states (Tick)
system.mem_ctrls129.power_state.pwrStateResidencyTicks::UNDEFINED   2147483750                       # Cumulative time (in ticks) in various power states (Tick)
system.mem_ctrls13.power_state.pwrStateResidencyTicks::UNDEFINED   2147483750                       # Cumulative time (in ticks) in various power states (Tick)
system.mem_ctrls130.power_state.pwrStateResidencyTicks::UNDEFINED   2147483750                       # Cumulative time (in ticks) in various power states (Tick)
system.mem_ctrls131.power_state.pwrStateResidencyTicks::UNDEFINED   2147483750                       # Cumulative time (in ticks) in various power states (Tick)
system.mem_ctrls132.power_state.pwrStateResidencyTicks::UNDEFINED   2147483750                       # Cumulative time (in ticks) in various power states (Tick)
system.mem_ctrls133.power_state.pwrStateResidencyTicks::UNDEFINED   2147483750                       # Cumulative time (in ticks) in various power states (Tick)
system.mem_ctrls134.power_state.pwrStateResidencyTicks::UNDEFINED   2147483750                       # Cumulative time (in ticks) in various power states (Tick)
system.mem_ctrls135.power_state.pwrStateResidencyTicks::UNDEFINED   2147483750                       # Cumulative time (in ticks) in various power states (Tick)
system.mem_ctrls136.power_state.pwrStateResidencyTicks::UNDEFINED   2147483750                       # Cumulative time (in ticks) in various power states (Tick)
system.mem_ctrls137.power_state.pwrStateResidencyTicks::UNDEFINED   2147483750                       # Cumulative time (in ticks) in various power states (Tick)
system.mem_ctrls138.power_state.pwrStateResidencyTicks::UNDEFINED   2147483750                       # Cumulative time (in ticks) in various power states (Tick)
system.mem_ctrls139.power_state.pwrStateResidencyTicks::UNDEFINED   2147483750                       # Cumulative time (in ticks) in various power states (Tick)
system.mem_ctrls14.power_state.pwrStateResidencyTicks::UNDEFINED   2147483750                       # Cumulative time (in ticks) in various power states (Tick)
system.mem_ctrls140.power_state.pwrStateResidencyTicks::UNDEFINED   2147483750                       # Cumulative time (in ticks) in various power states (Tick)
system.mem_ctrls141.power_state.pwrStateResidencyTicks::UNDEFINED   2147483750                       # Cumulative time (in ticks) in various power states (Tick)
system.mem_ctrls142.power_state.pwrStateResidencyTicks::UNDEFINED   2147483750                       # Cumulative time (in ticks) in various power states (Tick)
system.mem_ctrls143.power_state.pwrStateResidencyTicks::UNDEFINED   2147483750                       # Cumulative time (in ticks) in various power states (Tick)
system.mem_ctrls144.power_state.pwrStateResidencyTicks::UNDEFINED   2147483750                       # Cumulative time (in ticks) in various power states (Tick)
system.mem_ctrls145.power_state.pwrStateResidencyTicks::UNDEFINED   2147483750                       # Cumulative time (in ticks) in various power states (Tick)
system.mem_ctrls146.power_state.pwrStateResidencyTicks::UNDEFINED   2147483750                       # Cumulative time (in ticks) in various power states (Tick)
system.mem_ctrls147.power_state.pwrStateResidencyTicks::UNDEFINED   2147483750                       # Cumulative time (in ticks) in various power states (Tick)
system.mem_ctrls148.power_state.pwrStateResidencyTicks::UNDEFINED   2147483750                       # Cumulative time (in ticks) in various power states (Tick)
system.mem_ctrls149.power_state.pwrStateResidencyTicks::UNDEFINED   2147483750                       # Cumulative time (in ticks) in various power states (Tick)
system.mem_ctrls15.power_state.pwrStateResidencyTicks::UNDEFINED   2147483750                       # Cumulative time (in ticks) in various power states (Tick)
system.mem_ctrls150.power_state.pwrStateResidencyTicks::UNDEFINED   2147483750                       # Cumulative time (in ticks) in various power states (Tick)
system.mem_ctrls151.power_state.pwrStateResidencyTicks::UNDEFINED   2147483750                       # Cumulative time (in ticks) in various power states (Tick)
system.mem_ctrls152.power_state.pwrStateResidencyTicks::UNDEFINED   2147483750                       # Cumulative time (in ticks) in various power states (Tick)
system.mem_ctrls153.power_state.pwrStateResidencyTicks::UNDEFINED   2147483750                       # Cumulative time (in ticks) in various power states (Tick)
system.mem_ctrls154.power_state.pwrStateResidencyTicks::UNDEFINED   2147483750                       # Cumulative time (in ticks) in various power states (Tick)
system.mem_ctrls155.power_state.pwrStateResidencyTicks::UNDEFINED   2147483750                       # Cumulative time (in ticks) in various power states (Tick)
system.mem_ctrls156.power_state.pwrStateResidencyTicks::UNDEFINED   2147483750                       # Cumulative time (in ticks) in various power states (Tick)
system.mem_ctrls157.power_state.pwrStateResidencyTicks::UNDEFINED   2147483750                       # Cumulative time (in ticks) in various power states (Tick)
system.mem_ctrls158.power_state.pwrStateResidencyTicks::UNDEFINED   2147483750                       # Cumulative time (in ticks) in various power states (Tick)
system.mem_ctrls159.power_state.pwrStateResidencyTicks::UNDEFINED   2147483750                       # Cumulative time (in ticks) in various power states (Tick)
system.mem_ctrls16.power_state.pwrStateResidencyTicks::UNDEFINED   2147483750                       # Cumulative time (in ticks) in various power states (Tick)
system.mem_ctrls17.power_state.pwrStateResidencyTicks::UNDEFINED   2147483750                       # Cumulative time (in ticks) in various power states (Tick)
system.mem_ctrls18.power_state.pwrStateResidencyTicks::UNDEFINED   2147483750                       # Cumulative time (in ticks) in various power states (Tick)
system.mem_ctrls19.power_state.pwrStateResidencyTicks::UNDEFINED   2147483750                       # Cumulative time (in ticks) in various power states (Tick)
system.mem_ctrls2.power_state.pwrStateResidencyTicks::UNDEFINED   2147483750                       # Cumulative time (in ticks) in various power states (Tick)
system.mem_ctrls20.power_state.pwrStateResidencyTicks::UNDEFINED   2147483750                       # Cumulative time (in ticks) in various power states (Tick)
system.mem_ctrls21.power_state.pwrStateResidencyTicks::UNDEFINED   2147483750                       # Cumulative time (in ticks) in various power states (Tick)
system.mem_ctrls22.power_state.pwrStateResidencyTicks::UNDEFINED   2147483750                       # Cumulative time (in ticks) in various power states (Tick)
system.mem_ctrls23.power_state.pwrStateResidencyTicks::UNDEFINED   2147483750                       # Cumulative time (in ticks) in various power states (Tick)
system.mem_ctrls24.power_state.pwrStateResidencyTicks::UNDEFINED   2147483750                       # Cumulative time (in ticks) in various power states (Tick)
system.mem_ctrls25.power_state.pwrStateResidencyTicks::UNDEFINED   2147483750                       # Cumulative time (in ticks) in various power states (Tick)
system.mem_ctrls26.power_state.pwrStateResidencyTicks::UNDEFINED   2147483750                       # Cumulative time (in ticks) in various power states (Tick)
system.mem_ctrls27.power_state.pwrStateResidencyTicks::UNDEFINED   2147483750                       # Cumulative time (in ticks) in various power states (Tick)
system.mem_ctrls28.power_state.pwrStateResidencyTicks::UNDEFINED   2147483750                       # Cumulative time (in ticks) in various power states (Tick)
system.mem_ctrls29.power_state.pwrStateResidencyTicks::UNDEFINED   2147483750                       # Cumulative time (in ticks) in various power states (Tick)
system.mem_ctrls3.power_state.pwrStateResidencyTicks::UNDEFINED   2147483750                       # Cumulative time (in ticks) in various power states (Tick)
system.mem_ctrls30.power_state.pwrStateResidencyTicks::UNDEFINED   2147483750                       # Cumulative time (in ticks) in various power states (Tick)
system.mem_ctrls31.power_state.pwrStateResidencyTicks::UNDEFINED   2147483750                       # Cumulative time (in ticks) in various power states (Tick)
system.mem_ctrls32.power_state.pwrStateResidencyTicks::UNDEFINED   2147483750                       # Cumulative time (in ticks) in various power states (Tick)
system.mem_ctrls33.power_state.pwrStateResidencyTicks::UNDEFINED   2147483750                       # Cumulative time (in ticks) in various power states (Tick)
system.mem_ctrls34.power_state.pwrStateResidencyTicks::UNDEFINED   2147483750                       # Cumulative time (in ticks) in various power states (Tick)
system.mem_ctrls35.power_state.pwrStateResidencyTicks::UNDEFINED   2147483750                       # Cumulative time (in ticks) in various power states (Tick)
system.mem_ctrls36.power_state.pwrStateResidencyTicks::UNDEFINED   2147483750                       # Cumulative time (in ticks) in various power states (Tick)
system.mem_ctrls37.power_state.pwrStateResidencyTicks::UNDEFINED   2147483750                       # Cumulative time (in ticks) in various power states (Tick)
system.mem_ctrls38.power_state.pwrStateResidencyTicks::UNDEFINED   2147483750                       # Cumulative time (in ticks) in various power states (Tick)
system.mem_ctrls39.power_state.pwrStateResidencyTicks::UNDEFINED   2147483750                       # Cumulative time (in ticks) in various power states (Tick)
system.mem_ctrls4.power_state.pwrStateResidencyTicks::UNDEFINED   2147483750                       # Cumulative time (in ticks) in various power states (Tick)
system.mem_ctrls40.power_state.pwrStateResidencyTicks::UNDEFINED   2147483750                       # Cumulative time (in ticks) in various power states (Tick)
system.mem_ctrls41.power_state.pwrStateResidencyTicks::UNDEFINED   2147483750                       # Cumulative time (in ticks) in various power states (Tick)
system.mem_ctrls42.power_state.pwrStateResidencyTicks::UNDEFINED   2147483750                       # Cumulative time (in ticks) in various power states (Tick)
system.mem_ctrls43.power_state.pwrStateResidencyTicks::UNDEFINED   2147483750                       # Cumulative time (in ticks) in various power states (Tick)
system.mem_ctrls44.power_state.pwrStateResidencyTicks::UNDEFINED   2147483750                       # Cumulative time (in ticks) in various power states (Tick)
system.mem_ctrls45.power_state.pwrStateResidencyTicks::UNDEFINED   2147483750                       # Cumulative time (in ticks) in various power states (Tick)
system.mem_ctrls46.power_state.pwrStateResidencyTicks::UNDEFINED   2147483750                       # Cumulative time (in ticks) in various power states (Tick)
system.mem_ctrls47.power_state.pwrStateResidencyTicks::UNDEFINED   2147483750                       # Cumulative time (in ticks) in various power states (Tick)
system.mem_ctrls48.power_state.pwrStateResidencyTicks::UNDEFINED   2147483750                       # Cumulative time (in ticks) in various power states (Tick)
system.mem_ctrls49.power_state.pwrStateResidencyTicks::UNDEFINED   2147483750                       # Cumulative time (in ticks) in various power states (Tick)
system.mem_ctrls5.power_state.pwrStateResidencyTicks::UNDEFINED   2147483750                       # Cumulative time (in ticks) in various power states (Tick)
system.mem_ctrls50.power_state.pwrStateResidencyTicks::UNDEFINED   2147483750                       # Cumulative time (in ticks) in various power states (Tick)
system.mem_ctrls51.power_state.pwrStateResidencyTicks::UNDEFINED   2147483750                       # Cumulative time (in ticks) in various power states (Tick)
system.mem_ctrls52.power_state.pwrStateResidencyTicks::UNDEFINED   2147483750                       # Cumulative time (in ticks) in various power states (Tick)
system.mem_ctrls53.power_state.pwrStateResidencyTicks::UNDEFINED   2147483750                       # Cumulative time (in ticks) in various power states (Tick)
system.mem_ctrls54.power_state.pwrStateResidencyTicks::UNDEFINED   2147483750                       # Cumulative time (in ticks) in various power states (Tick)
system.mem_ctrls55.power_state.pwrStateResidencyTicks::UNDEFINED   2147483750                       # Cumulative time (in ticks) in various power states (Tick)
system.mem_ctrls56.power_state.pwrStateResidencyTicks::UNDEFINED   2147483750                       # Cumulative time (in ticks) in various power states (Tick)
system.mem_ctrls57.power_state.pwrStateResidencyTicks::UNDEFINED   2147483750                       # Cumulative time (in ticks) in various power states (Tick)
system.mem_ctrls58.power_state.pwrStateResidencyTicks::UNDEFINED   2147483750                       # Cumulative time (in ticks) in various power states (Tick)
system.mem_ctrls59.power_state.pwrStateResidencyTicks::UNDEFINED   2147483750                       # Cumulative time (in ticks) in various power states (Tick)
system.mem_ctrls6.power_state.pwrStateResidencyTicks::UNDEFINED   2147483750                       # Cumulative time (in ticks) in various power states (Tick)
system.mem_ctrls60.power_state.pwrStateResidencyTicks::UNDEFINED   2147483750                       # Cumulative time (in ticks) in various power states (Tick)
system.mem_ctrls61.power_state.pwrStateResidencyTicks::UNDEFINED   2147483750                       # Cumulative time (in ticks) in various power states (Tick)
system.mem_ctrls62.power_state.pwrStateResidencyTicks::UNDEFINED   2147483750                       # Cumulative time (in ticks) in various power states (Tick)
system.mem_ctrls63.power_state.pwrStateResidencyTicks::UNDEFINED   2147483750                       # Cumulative time (in ticks) in various power states (Tick)
system.mem_ctrls64.power_state.pwrStateResidencyTicks::UNDEFINED   2147483750                       # Cumulative time (in ticks) in various power states (Tick)
system.mem_ctrls65.power_state.pwrStateResidencyTicks::UNDEFINED   2147483750                       # Cumulative time (in ticks) in various power states (Tick)
system.mem_ctrls66.power_state.pwrStateResidencyTicks::UNDEFINED   2147483750                       # Cumulative time (in ticks) in various power states (Tick)
system.mem_ctrls67.power_state.pwrStateResidencyTicks::UNDEFINED   2147483750                       # Cumulative time (in ticks) in various power states (Tick)
system.mem_ctrls68.power_state.pwrStateResidencyTicks::UNDEFINED   2147483750                       # Cumulative time (in ticks) in various power states (Tick)
system.mem_ctrls69.power_state.pwrStateResidencyTicks::UNDEFINED   2147483750                       # Cumulative time (in ticks) in various power states (Tick)
system.mem_ctrls7.power_state.pwrStateResidencyTicks::UNDEFINED   2147483750                       # Cumulative time (in ticks) in various power states (Tick)
system.mem_ctrls70.power_state.pwrStateResidencyTicks::UNDEFINED   2147483750                       # Cumulative time (in ticks) in various power states (Tick)
system.mem_ctrls71.power_state.pwrStateResidencyTicks::UNDEFINED   2147483750                       # Cumulative time (in ticks) in various power states (Tick)
system.mem_ctrls72.power_state.pwrStateResidencyTicks::UNDEFINED   2147483750                       # Cumulative time (in ticks) in various power states (Tick)
system.mem_ctrls73.power_state.pwrStateResidencyTicks::UNDEFINED   2147483750                       # Cumulative time (in ticks) in various power states (Tick)
system.mem_ctrls74.power_state.pwrStateResidencyTicks::UNDEFINED   2147483750                       # Cumulative time (in ticks) in various power states (Tick)
system.mem_ctrls75.power_state.pwrStateResidencyTicks::UNDEFINED   2147483750                       # Cumulative time (in ticks) in various power states (Tick)
system.mem_ctrls76.power_state.pwrStateResidencyTicks::UNDEFINED   2147483750                       # Cumulative time (in ticks) in various power states (Tick)
system.mem_ctrls77.power_state.pwrStateResidencyTicks::UNDEFINED   2147483750                       # Cumulative time (in ticks) in various power states (Tick)
system.mem_ctrls78.power_state.pwrStateResidencyTicks::UNDEFINED   2147483750                       # Cumulative time (in ticks) in various power states (Tick)
system.mem_ctrls79.power_state.pwrStateResidencyTicks::UNDEFINED   2147483750                       # Cumulative time (in ticks) in various power states (Tick)
system.mem_ctrls8.power_state.pwrStateResidencyTicks::UNDEFINED   2147483750                       # Cumulative time (in ticks) in various power states (Tick)
system.mem_ctrls80.power_state.pwrStateResidencyTicks::UNDEFINED   2147483750                       # Cumulative time (in ticks) in various power states (Tick)
system.mem_ctrls81.power_state.pwrStateResidencyTicks::UNDEFINED   2147483750                       # Cumulative time (in ticks) in various power states (Tick)
system.mem_ctrls82.power_state.pwrStateResidencyTicks::UNDEFINED   2147483750                       # Cumulative time (in ticks) in various power states (Tick)
system.mem_ctrls83.power_state.pwrStateResidencyTicks::UNDEFINED   2147483750                       # Cumulative time (in ticks) in various power states (Tick)
system.mem_ctrls84.power_state.pwrStateResidencyTicks::UNDEFINED   2147483750                       # Cumulative time (in ticks) in various power states (Tick)
system.mem_ctrls85.power_state.pwrStateResidencyTicks::UNDEFINED   2147483750                       # Cumulative time (in ticks) in various power states (Tick)
system.mem_ctrls86.power_state.pwrStateResidencyTicks::UNDEFINED   2147483750                       # Cumulative time (in ticks) in various power states (Tick)
system.mem_ctrls87.power_state.pwrStateResidencyTicks::UNDEFINED   2147483750                       # Cumulative time (in ticks) in various power states (Tick)
system.mem_ctrls88.power_state.pwrStateResidencyTicks::UNDEFINED   2147483750                       # Cumulative time (in ticks) in various power states (Tick)
system.mem_ctrls89.power_state.pwrStateResidencyTicks::UNDEFINED   2147483750                       # Cumulative time (in ticks) in various power states (Tick)
system.mem_ctrls9.power_state.pwrStateResidencyTicks::UNDEFINED   2147483750                       # Cumulative time (in ticks) in various power states (Tick)
system.mem_ctrls90.power_state.pwrStateResidencyTicks::UNDEFINED   2147483750                       # Cumulative time (in ticks) in various power states (Tick)
system.mem_ctrls91.power_state.pwrStateResidencyTicks::UNDEFINED   2147483750                       # Cumulative time (in ticks) in various power states (Tick)
system.mem_ctrls92.power_state.pwrStateResidencyTicks::UNDEFINED   2147483750                       # Cumulative time (in ticks) in various power states (Tick)
system.mem_ctrls93.power_state.pwrStateResidencyTicks::UNDEFINED   2147483750                       # Cumulative time (in ticks) in various power states (Tick)
system.mem_ctrls94.power_state.pwrStateResidencyTicks::UNDEFINED   2147483750                       # Cumulative time (in ticks) in various power states (Tick)
system.mem_ctrls95.power_state.pwrStateResidencyTicks::UNDEFINED   2147483750                       # Cumulative time (in ticks) in various power states (Tick)
system.mem_ctrls96.power_state.pwrStateResidencyTicks::UNDEFINED   2147483750                       # Cumulative time (in ticks) in various power states (Tick)
system.mem_ctrls97.power_state.pwrStateResidencyTicks::UNDEFINED   2147483750                       # Cumulative time (in ticks) in various power states (Tick)
system.mem_ctrls98.power_state.pwrStateResidencyTicks::UNDEFINED   2147483750                       # Cumulative time (in ticks) in various power states (Tick)
system.mem_ctrls99.power_state.pwrStateResidencyTicks::UNDEFINED   2147483750                       # Cumulative time (in ticks) in various power states (Tick)
system.ruby.m_outstandReqHistSeqr::bucket_size            1                       (Unspecified)
system.ruby.m_outstandReqHistSeqr::max_bucket            9                       (Unspecified)
system.ruby.m_outstandReqHistSeqr::samples     44621493                       (Unspecified)
system.ruby.m_outstandReqHistSeqr::mean             1                       (Unspecified)
system.ruby.m_outstandReqHistSeqr::gmean            1                       (Unspecified)
system.ruby.m_outstandReqHistSeqr        |           0      0.00%      0.00% |    44621493    100.00%    100.00% |           0      0.00%    100.00% |           0      0.00%    100.00% |           0      0.00%    100.00% |           0      0.00%    100.00% |           0      0.00%    100.00% |           0      0.00%    100.00% |           0      0.00%    100.00% |           0      0.00%    100.00% (Unspecified)
system.ruby.m_outstandReqHistSeqr::total     44621493                       (Unspecified)
system.ruby.m_latencyHistSeqr::bucket_size            1                       (Unspecified)
system.ruby.m_latencyHistSeqr::max_bucket            9                       (Unspecified)
system.ruby.m_latencyHistSeqr::samples       44621488                       (Unspecified)
system.ruby.m_latencyHistSeqr::mean                 1                       (Unspecified)
system.ruby.m_latencyHistSeqr::gmean                1                       (Unspecified)
system.ruby.m_latencyHistSeqr            |           0      0.00%      0.00% |    44621488    100.00%    100.00% |           0      0.00%    100.00% |           0      0.00%    100.00% |           0      0.00%    100.00% |           0      0.00%    100.00% |           0      0.00%    100.00% |           0      0.00%    100.00% |           0      0.00%    100.00% |           0      0.00%    100.00% (Unspecified)
system.ruby.m_latencyHistSeqr::total         44621488                       (Unspecified)
system.ruby.m_hitLatencyHistSeqr::bucket_size            1                       (Unspecified)
system.ruby.m_hitLatencyHistSeqr::max_bucket            9                       (Unspecified)
system.ruby.m_hitLatencyHistSeqr::samples     44621488                       (Unspecified)
system.ruby.m_hitLatencyHistSeqr::mean              1                       (Unspecified)
system.ruby.m_hitLatencyHistSeqr::gmean             1                       (Unspecified)
system.ruby.m_hitLatencyHistSeqr         |           0      0.00%      0.00% |    44621488    100.00%    100.00% |           0      0.00%    100.00% |           0      0.00%    100.00% |           0      0.00%    100.00% |           0      0.00%    100.00% |           0      0.00%    100.00% |           0      0.00%    100.00% |           0      0.00%    100.00% |           0      0.00%    100.00% (Unspecified)
system.ruby.m_hitLatencyHistSeqr::total      44621488                       (Unspecified)
system.ruby.Directory_Controller.Receive_Request |      138668      0.62%      0.62% |      139207      0.62%      1.25% |      139410      0.62%      1.87% |      139521      0.63%      2.50% |      140108      0.63%      3.12% |      139283      0.62%      3.75% |      139486      0.63%      4.37% |      139557      0.63%      5.00% |      139890      0.63%      5.63% |      139384      0.62%      6.25% |      139329      0.62%      6.87% |      139308      0.62%      7.50% |      139680      0.63%      8.12% |      139258      0.62%      8.75% |      139130      0.62%      9.37% |      139034      0.62%     10.00% |      139393      0.62%     10.62% |      139711      0.63%     11.25% |      139453      0.63%     11.87% |      139642      0.63%     12.50% |      140072      0.63%     13.13% |      139661      0.63%     13.75% |      139643      0.63%     14.38% |      138959      0.62%     15.00% |      139067      0.62%     15.62% |      140050      0.63%     16.25% |      138916      0.62%     16.87% |      139809      0.63%     17.50% |      139604      0.63%     18.13% |      140253      0.63%     18.75% |      139373      0.62%     19.38% |      139721      0.63%     20.01% |      140041      0.63%     20.63% |      139439      0.62%     21.26% |      139441      0.62%     21.88% |      139692      0.63%     22.51% |      139788      0.63%     23.14% |      139161      0.62%     23.76% |      139736      0.63%     24.39% |      139784      0.63%     25.01% |      139322      0.62%     25.64% |      139430      0.62%     26.26% |      138906      0.62%     26.88% |      139561      0.63%     27.51% |      138948      0.62%     28.13% |      139689      0.63%     28.76% |      139631      0.63%     29.38% |      139252      0.62%     30.01% |      139040      0.62%     30.63% |      139707      0.63%     31.26% |      139540      0.63%     31.88% |      139556      0.63%     32.51% |      139419      0.62%     33.13% |      139474      0.63%     33.76% |      139023      0.62%     34.38% |      139601      0.63%     35.01% |      138828      0.62%     35.63% |      139173      0.62%     36.25% |      139580      0.63%     36.88% |      139757      0.63%     37.50% |      139627      0.63%     38.13% |      138742      0.62%     38.75% |      139871      0.63%     39.38% |      139574      0.63%     40.00% |      139020      0.62%     40.63% |      139450      0.62%     41.25% |      139800      0.63%     41.88% |      139366      0.62%     42.50% |      139054      0.62%     43.13% |      139262      0.62%     43.75% |      139262      0.62%     44.38% |      139848      0.63%     45.00% |      139100      0.62%     45.63% |      139519      0.63%     46.25% |      139164      0.62%     46.88% |      140037      0.63%     47.50% |      139829      0.63%     48.13% |      138837      0.62%     48.75% |      139148      0.62%     49.38% |      139337      0.62%     50.00% |      139166      0.62%     50.62% |      138870      0.62%     51.25% |      138962      0.62%     51.87% |      139584      0.63%     52.49% |      138974      0.62%     53.12% |      139858      0.63%     53.74% |      139311      0.62%     54.37% |      139831      0.63%     55.00% |      139865      0.63%     55.62% |      138840      0.62%     56.24% |      139892      0.63%     56.87% |      140170      0.63%     57.50% |      139195      0.62%     58.12% |      139992      0.63%     58.75% |      139989      0.63%     59.38% |      139477      0.63%     60.00% |      139787      0.63%     60.63% |      139389      0.62%     61.25% |      139404      0.62%     61.88% |      139613      0.63%     62.50% |      140152      0.63%     63.13% |      138964      0.62%     63.76% |      139423      0.62%     64.38% |      139200      0.62%     65.00% |      139074      0.62%     65.63% |      139450      0.62%     66.25% |      139646      0.63%     66.88% |      139194      0.62%     67.50% |      139293      0.62%     68.13% |      139074      0.62%     68.75% |      139262      0.62%     69.37% |      139723      0.63%     70.00% |      139885      0.63%     70.63% |      139310      0.62%     71.25% |      139718      0.63%     71.88% |      139645      0.63%     72.50% |      139705      0.63%     73.13% |      138764      0.62%     73.75% |      139889      0.63%     74.38% |      139052      0.62%     75.00% |      138699      0.62%     75.62% |      139702      0.63%     76.25% |      139245      0.62%     76.87% |      139824      0.63%     77.50% |      139832      0.63%     78.13% |      139393      0.62%     78.75% |      139165      0.62%     79.38% |      139483      0.63%     80.00% |      139504      0.63%     80.63% |      139442      0.62%     81.25% |      138940      0.62%     81.87% |      139635      0.63%     82.50% |      139278      0.62%     83.12% |      139882      0.63%     83.75% |      139791      0.63%     84.38% |      139640      0.63%     85.00% |      138913      0.62%     85.63% |      139159      0.62%     86.25% |      139256      0.62%     86.87% |      139639      0.63%     87.50% |      139211      0.62%     88.12% |      139338      0.62%     88.75% |      139470      0.63%     89.37% |      139569      0.63%     90.00% |      138773      0.62%     90.62% |      139369      0.62%     91.25% |      139609      0.63%     91.87% |      139189      0.62%     92.49% |      139216      0.62%     93.12% |      139602      0.63%     93.74% |      139368      0.62%     94.37% |      139277      0.62%     94.99% |      139364      0.62%     95.62% |      139325      0.62%     96.24% |      139766      0.63%     96.87% |      139974      0.63%     97.50% |      139803      0.63%     98.12% |      139380      0.62%     98.75% |      139954      0.63%     99.37% |      139497      0.63%    100.00% (Unspecified)
system.ruby.Directory_Controller.Receive_Request::total     22312014                       (Unspecified)
system.ruby.Directory_Controller.Receive_Response |       96340      0.63%      0.63% |       96009      0.62%      1.25% |       96621      0.63%      1.88% |       95864      0.62%      2.50% |       95801      0.62%      3.13% |       95783      0.62%      3.75% |       95780      0.62%      4.37% |       96210      0.63%      5.00% |       96060      0.62%      5.62% |       96058      0.62%      6.25% |       95934      0.62%      6.87% |       96372      0.63%      7.50% |       96141      0.63%      8.12% |       95963      0.62%      8.75% |       96117      0.63%      9.37% |       95444      0.62%      9.99% |       95721      0.62%     10.62% |       95459      0.62%     11.24% |       95950      0.62%     11.86% |       95806      0.62%     12.49% |       95659      0.62%     13.11% |       96315      0.63%     13.73% |       96371      0.63%     14.36% |       96235      0.63%     14.99% |       95808      0.62%     15.61% |       95949      0.62%     16.23% |       96178      0.63%     16.86% |       96123      0.63%     17.49% |       95659      0.62%     18.11% |       96043      0.62%     18.73% |       96493      0.63%     19.36% |       95814      0.62%     19.98% |       95273      0.62%     20.60% |       96220      0.63%     21.23% |       96135      0.63%     21.85% |       96556      0.63%     22.48% |       96306      0.63%     23.11% |       96077      0.62%     23.73% |       95826      0.62%     24.36% |       96339      0.63%     24.98% |       96261      0.63%     25.61% |       96150      0.63%     26.24% |       95994      0.62%     26.86% |       95755      0.62%     27.48% |       96231      0.63%     28.11% |       96267      0.63%     28.73% |       95983      0.62%     29.36% |       96253      0.63%     29.99% |       96330      0.63%     30.61% |       95665      0.62%     31.23% |       96187      0.63%     31.86% |       95947      0.62%     32.48% |       95866      0.62%     33.11% |       96323      0.63%     33.73% |       96437      0.63%     34.36% |       96136      0.63%     34.99% |       95869      0.62%     35.61% |       95863      0.62%     36.23% |       96293      0.63%     36.86% |       96373      0.63%     37.49% |       96126      0.63%     38.11% |       95708      0.62%     38.73% |       96458      0.63%     39.36% |       96456      0.63%     39.99% |       95830      0.62%     40.61% |       95903      0.62%     41.24% |       96354      0.63%     41.86% |       95582      0.62%     42.49% |       96175      0.63%     43.11% |       95796      0.62%     43.73% |       95770      0.62%     44.36% |       95913      0.62%     44.98% |       95927      0.62%     45.61% |       95641      0.62%     46.23% |       96403      0.63%     46.85% |       95927      0.62%     47.48% |       96003      0.62%     48.10% |       96175      0.63%     48.73% |       96185      0.63%     49.35% |       95821      0.62%     49.98% |       96143      0.63%     50.60% |       96528      0.63%     51.23% |       95724      0.62%     51.85% |       95800      0.62%     52.48% |       96030      0.62%     53.10% |       96068      0.62%     53.73% |       96594      0.63%     54.35% |       96171      0.63%     54.98% |       95640      0.62%     55.60% |       96262      0.63%     56.23% |       95716      0.62%     56.85% |       95815      0.62%     57.47% |       96217      0.63%     58.10% |       96224      0.63%     58.73% |       96013      0.62%     59.35% |       95949      0.62%     59.97% |       96189      0.63%     60.60% |       96221      0.63%     61.23% |       96405      0.63%     61.85% |       96444      0.63%     62.48% |       96213      0.63%     63.11% |       96332      0.63%     63.73% |       96288      0.63%     64.36% |       95815      0.62%     64.98% |       96008      0.62%     65.61% |       96567      0.63%     66.24% |       96114      0.63%     66.86% |       95815      0.62%     67.48% |       95858      0.62%     68.11% |       95932      0.62%     68.73% |       96001      0.62%     69.36% |       96513      0.63%     69.98% |       96677      0.63%     70.61% |       96430      0.63%     71.24% |       96316      0.63%     71.87% |       96192      0.63%     72.49% |       96377      0.63%     73.12% |       96110      0.63%     73.74% |       95885      0.62%     74.37% |       96305      0.63%     74.99% |       96348      0.63%     75.62% |       96031      0.62%     76.25% |       95908      0.62%     76.87% |       96458      0.63%     77.50% |       95759      0.62%     78.12% |       96013      0.62%     78.74% |       95368      0.62%     79.36% |       95989      0.62%     79.99% |       95998      0.62%     80.61% |       96035      0.62%     81.24% |       96271      0.63%     81.86% |       95904      0.62%     82.49% |       96067      0.62%     83.11% |       96211      0.63%     83.74% |       96028      0.62%     84.36% |       96240      0.63%     84.99% |       96601      0.63%     85.62% |       95872      0.62%     86.24% |       95982      0.62%     86.87% |       96330      0.63%     87.49% |       96119      0.63%     88.12% |       95767      0.62%     88.74% |       96484      0.63%     89.37% |       96000      0.62%     89.99% |       96329      0.63%     90.62% |       96511      0.63%     91.25% |       96078      0.62%     91.87% |       96729      0.63%     92.50% |       96041      0.62%     93.13% |       95971      0.62%     93.75% |       95872      0.62%     94.37% |       96196      0.63%     95.00% |       96155      0.63%     95.63% |       96215      0.63%     96.25% |       96007      0.62%     96.88% |       95823      0.62%     97.50% |       96063      0.62%     98.12% |       96063      0.62%     98.75% |       96527      0.63%     99.38% |       95849      0.62%    100.00% (Unspecified)
system.ruby.Directory_Controller.Receive_Response::total     15373261                       (Unspecified)
system.ruby.Directory_Controller.I.Receive_Request |      138668      0.62%      0.62% |      139207      0.62%      1.25% |      139410      0.62%      1.87% |      139521      0.63%      2.50% |      140108      0.63%      3.12% |      139283      0.62%      3.75% |      139486      0.63%      4.37% |      139557      0.63%      5.00% |      139890      0.63%      5.63% |      139384      0.62%      6.25% |      139329      0.62%      6.87% |      139308      0.62%      7.50% |      139680      0.63%      8.12% |      139258      0.62%      8.75% |      139130      0.62%      9.37% |      139034      0.62%     10.00% |      139393      0.62%     10.62% |      139711      0.63%     11.25% |      139453      0.63%     11.87% |      139642      0.63%     12.50% |      140072      0.63%     13.13% |      139661      0.63%     13.75% |      139643      0.63%     14.38% |      138959      0.62%     15.00% |      139067      0.62%     15.62% |      140050      0.63%     16.25% |      138916      0.62%     16.87% |      139809      0.63%     17.50% |      139604      0.63%     18.13% |      140253      0.63%     18.75% |      139373      0.62%     19.38% |      139721      0.63%     20.01% |      140041      0.63%     20.63% |      139439      0.62%     21.26% |      139441      0.62%     21.88% |      139692      0.63%     22.51% |      139788      0.63%     23.14% |      139161      0.62%     23.76% |      139736      0.63%     24.39% |      139784      0.63%     25.01% |      139322      0.62%     25.64% |      139430      0.62%     26.26% |      138906      0.62%     26.88% |      139561      0.63%     27.51% |      138948      0.62%     28.13% |      139689      0.63%     28.76% |      139631      0.63%     29.38% |      139252      0.62%     30.01% |      139040      0.62%     30.63% |      139707      0.63%     31.26% |      139540      0.63%     31.88% |      139556      0.63%     32.51% |      139419      0.62%     33.13% |      139474      0.63%     33.76% |      139023      0.62%     34.38% |      139601      0.63%     35.01% |      138828      0.62%     35.63% |      139173      0.62%     36.25% |      139580      0.63%     36.88% |      139757      0.63%     37.50% |      139627      0.63%     38.13% |      138742      0.62%     38.75% |      139871      0.63%     39.38% |      139574      0.63%     40.00% |      139020      0.62%     40.63% |      139450      0.62%     41.25% |      139800      0.63%     41.88% |      139366      0.62%     42.50% |      139054      0.62%     43.13% |      139262      0.62%     43.75% |      139262      0.62%     44.38% |      139848      0.63%     45.00% |      139100      0.62%     45.63% |      139519      0.63%     46.25% |      139164      0.62%     46.88% |      140037      0.63%     47.50% |      139829      0.63%     48.13% |      138837      0.62%     48.75% |      139148      0.62%     49.38% |      139337      0.62%     50.00% |      139166      0.62%     50.62% |      138870      0.62%     51.25% |      138962      0.62%     51.87% |      139584      0.63%     52.49% |      138974      0.62%     53.12% |      139858      0.63%     53.74% |      139311      0.62%     54.37% |      139831      0.63%     55.00% |      139865      0.63%     55.62% |      138840      0.62%     56.24% |      139892      0.63%     56.87% |      140170      0.63%     57.50% |      139195      0.62%     58.12% |      139992      0.63%     58.75% |      139989      0.63%     59.38% |      139477      0.63%     60.00% |      139787      0.63%     60.63% |      139389      0.62%     61.25% |      139404      0.62%     61.88% |      139613      0.63%     62.50% |      140152      0.63%     63.13% |      138964      0.62%     63.76% |      139423      0.62%     64.38% |      139200      0.62%     65.00% |      139074      0.62%     65.63% |      139450      0.62%     66.25% |      139646      0.63%     66.88% |      139194      0.62%     67.50% |      139293      0.62%     68.13% |      139074      0.62%     68.75% |      139262      0.62%     69.37% |      139723      0.63%     70.00% |      139885      0.63%     70.63% |      139310      0.62%     71.25% |      139718      0.63%     71.88% |      139645      0.63%     72.50% |      139705      0.63%     73.13% |      138764      0.62%     73.75% |      139889      0.63%     74.38% |      139052      0.62%     75.00% |      138699      0.62%     75.62% |      139702      0.63%     76.25% |      139245      0.62%     76.87% |      139824      0.63%     77.50% |      139832      0.63%     78.13% |      139393      0.62%     78.75% |      139165      0.62%     79.38% |      139483      0.63%     80.00% |      139504      0.63%     80.63% |      139442      0.62%     81.25% |      138940      0.62%     81.87% |      139635      0.63%     82.50% |      139278      0.62%     83.12% |      139882      0.63%     83.75% |      139791      0.63%     84.38% |      139640      0.63%     85.00% |      138913      0.62%     85.63% |      139159      0.62%     86.25% |      139256      0.62%     86.87% |      139639      0.63%     87.50% |      139211      0.62%     88.12% |      139338      0.62%     88.75% |      139470      0.63%     89.37% |      139569      0.63%     90.00% |      138773      0.62%     90.62% |      139369      0.62%     91.25% |      139609      0.63%     91.87% |      139189      0.62%     92.49% |      139216      0.62%     93.12% |      139602      0.63%     93.74% |      139368      0.62%     94.37% |      139277      0.62%     94.99% |      139364      0.62%     95.62% |      139325      0.62%     96.24% |      139766      0.63%     96.87% |      139974      0.63%     97.50% |      139803      0.63%     98.12% |      139380      0.62%     98.75% |      139954      0.63%     99.37% |      139497      0.63%    100.00% (Unspecified)
system.ruby.Directory_Controller.I.Receive_Request::total     22312014                       (Unspecified)
system.ruby.Directory_Controller.I.Receive_Response |       96340      0.63%      0.63% |       96009      0.62%      1.25% |       96621      0.63%      1.88% |       95864      0.62%      2.50% |       95801      0.62%      3.13% |       95783      0.62%      3.75% |       95780      0.62%      4.37% |       96210      0.63%      5.00% |       96060      0.62%      5.62% |       96058      0.62%      6.25% |       95934      0.62%      6.87% |       96372      0.63%      7.50% |       96141      0.63%      8.12% |       95963      0.62%      8.75% |       96117      0.63%      9.37% |       95444      0.62%      9.99% |       95721      0.62%     10.62% |       95459      0.62%     11.24% |       95950      0.62%     11.86% |       95806      0.62%     12.49% |       95659      0.62%     13.11% |       96315      0.63%     13.73% |       96371      0.63%     14.36% |       96235      0.63%     14.99% |       95808      0.62%     15.61% |       95949      0.62%     16.23% |       96178      0.63%     16.86% |       96123      0.63%     17.49% |       95659      0.62%     18.11% |       96043      0.62%     18.73% |       96493      0.63%     19.36% |       95814      0.62%     19.98% |       95273      0.62%     20.60% |       96220      0.63%     21.23% |       96135      0.63%     21.85% |       96556      0.63%     22.48% |       96306      0.63%     23.11% |       96077      0.62%     23.73% |       95826      0.62%     24.36% |       96339      0.63%     24.98% |       96261      0.63%     25.61% |       96150      0.63%     26.24% |       95994      0.62%     26.86% |       95755      0.62%     27.48% |       96231      0.63%     28.11% |       96267      0.63%     28.73% |       95983      0.62%     29.36% |       96253      0.63%     29.99% |       96330      0.63%     30.61% |       95665      0.62%     31.23% |       96187      0.63%     31.86% |       95947      0.62%     32.48% |       95866      0.62%     33.11% |       96323      0.63%     33.73% |       96437      0.63%     34.36% |       96136      0.63%     34.99% |       95869      0.62%     35.61% |       95863      0.62%     36.23% |       96293      0.63%     36.86% |       96373      0.63%     37.49% |       96126      0.63%     38.11% |       95708      0.62%     38.73% |       96458      0.63%     39.36% |       96456      0.63%     39.99% |       95830      0.62%     40.61% |       95903      0.62%     41.24% |       96354      0.63%     41.86% |       95582      0.62%     42.49% |       96175      0.63%     43.11% |       95796      0.62%     43.73% |       95770      0.62%     44.36% |       95913      0.62%     44.98% |       95927      0.62%     45.61% |       95641      0.62%     46.23% |       96403      0.63%     46.85% |       95927      0.62%     47.48% |       96003      0.62%     48.10% |       96175      0.63%     48.73% |       96185      0.63%     49.35% |       95821      0.62%     49.98% |       96143      0.63%     50.60% |       96528      0.63%     51.23% |       95724      0.62%     51.85% |       95800      0.62%     52.48% |       96030      0.62%     53.10% |       96068      0.62%     53.73% |       96594      0.63%     54.35% |       96171      0.63%     54.98% |       95640      0.62%     55.60% |       96262      0.63%     56.23% |       95716      0.62%     56.85% |       95815      0.62%     57.47% |       96217      0.63%     58.10% |       96224      0.63%     58.73% |       96013      0.62%     59.35% |       95949      0.62%     59.97% |       96189      0.63%     60.60% |       96221      0.63%     61.23% |       96405      0.63%     61.85% |       96444      0.63%     62.48% |       96213      0.63%     63.11% |       96332      0.63%     63.73% |       96288      0.63%     64.36% |       95815      0.62%     64.98% |       96008      0.62%     65.61% |       96567      0.63%     66.24% |       96114      0.63%     66.86% |       95815      0.62%     67.48% |       95858      0.62%     68.11% |       95932      0.62%     68.73% |       96001      0.62%     69.36% |       96513      0.63%     69.98% |       96677      0.63%     70.61% |       96430      0.63%     71.24% |       96316      0.63%     71.87% |       96192      0.63%     72.49% |       96377      0.63%     73.12% |       96110      0.63%     73.74% |       95885      0.62%     74.37% |       96305      0.63%     74.99% |       96348      0.63%     75.62% |       96031      0.62%     76.25% |       95908      0.62%     76.87% |       96458      0.63%     77.50% |       95759      0.62%     78.12% |       96013      0.62%     78.74% |       95368      0.62%     79.36% |       95989      0.62%     79.99% |       95998      0.62%     80.61% |       96035      0.62%     81.24% |       96271      0.63%     81.86% |       95904      0.62%     82.49% |       96067      0.62%     83.11% |       96211      0.63%     83.74% |       96028      0.62%     84.36% |       96240      0.63%     84.99% |       96601      0.63%     85.62% |       95872      0.62%     86.24% |       95982      0.62%     86.87% |       96330      0.63%     87.49% |       96119      0.63%     88.12% |       95767      0.62%     88.74% |       96484      0.63%     89.37% |       96000      0.62%     89.99% |       96329      0.63%     90.62% |       96511      0.63%     91.25% |       96078      0.62%     91.87% |       96729      0.63%     92.50% |       96041      0.62%     93.13% |       95971      0.62%     93.75% |       95872      0.62%     94.37% |       96196      0.63%     95.00% |       96155      0.63%     95.63% |       96215      0.63%     96.25% |       96007      0.62%     96.88% |       95823      0.62%     97.50% |       96063      0.62%     98.12% |       96063      0.62%     98.75% |       96527      0.63%     99.38% |       95849      0.62%    100.00% (Unspecified)
system.ruby.Directory_Controller.I.Receive_Response::total     15373261                       (Unspecified)
system.ruby.L1Cache_Controller.Request   |      558527      2.50%      2.50% |      557016      2.50%      5.00% |      558374      2.50%      7.50% |      557274      2.50%     10.00% |      557688      2.50%     12.50% |      556975      2.50%     15.00% |      557200      2.50%     17.49% |      557268      2.50%     19.99% |      558868      2.50%     22.50% |      558337      2.50%     25.00% |      557864      2.50%     27.50% |      558960      2.51%     30.00% |      558202      2.50%     32.51% |      558813      2.50%     35.01% |      558079      2.50%     37.51% |      558782      2.50%     40.02% |      558452      2.50%     42.52% |      556292      2.49%     45.01% |      558722      2.50%     47.52% |      557360      2.50%     50.01% |      558573      2.50%     52.52% |      556842      2.50%     55.01% |      557620      2.50%     57.51% |      558154      2.50%     60.01% |      557281      2.50%     62.51% |      556853      2.50%     65.01% |      558435      2.50%     67.51% |      556564      2.49%     70.00% |      557773      2.50%     72.50% |      558955      2.51%     75.01% |      558011      2.50%     77.51% |      557466      2.50%     80.01% |      557773      2.50%     82.51% |      557259      2.50%     85.01% |      557104      2.50%     87.50% |      557495      2.50%     90.00% |      558082      2.50%     92.50% |      557341      2.50%     95.00% |      557984      2.50%     97.50% |      557459      2.50%    100.00% (Unspecified)
system.ruby.L1Cache_Controller.Request::total     22312077                       (Unspecified)
system.ruby.L1Cache_Controller.Response  |      557851      2.50%      2.50% |      557487      2.50%      5.00% |      557707      2.50%      7.50% |      557007      2.50%     10.00% |      558161      2.50%     12.50% |      557572      2.50%     15.00% |      558300      2.50%     17.50% |      557744      2.50%     20.00% |      556831      2.50%     22.50% |      558383      2.50%     25.00% |      557945      2.50%     27.50% |      558808      2.50%     30.00% |      556822      2.50%     32.50% |      557569      2.50%     35.00% |      556940      2.50%     37.50% |      557307      2.50%     39.99% |      556036      2.49%     42.49% |      558786      2.50%     44.99% |      558247      2.50%     47.49% |      557986      2.50%     49.99% |      557122      2.50%     52.49% |      558502      2.50%     55.00% |      558741      2.50%     57.50% |      556525      2.49%     59.99% |      559004      2.51%     62.50% |      558072      2.50%     65.00% |      557299      2.50%     67.50% |      557651      2.50%     70.00% |      557698      2.50%     72.50% |      556104      2.49%     74.99% |      556550      2.49%     77.49% |      557973      2.50%     79.99% |      559095      2.51%     82.49% |      557430      2.50%     84.99% |      558404      2.50%     87.50% |      557785      2.50%     90.00% |      558513      2.50%     92.50% |      557571      2.50%     95.00% |      559311      2.51%     97.51% |      556572      2.49%    100.00% (Unspecified)
system.ruby.L1Cache_Controller.Response::total     22309411                       (Unspecified)
system.ruby.L1Cache_Controller.I.Request |      558527      2.50%      2.50% |      557016      2.50%      5.00% |      558374      2.50%      7.50% |      557274      2.50%     10.00% |      557688      2.50%     12.50% |      556975      2.50%     15.00% |      557200      2.50%     17.49% |      557268      2.50%     19.99% |      558868      2.50%     22.50% |      558337      2.50%     25.00% |      557864      2.50%     27.50% |      558960      2.51%     30.00% |      558202      2.50%     32.51% |      558813      2.50%     35.01% |      558079      2.50%     37.51% |      558782      2.50%     40.02% |      558452      2.50%     42.52% |      556292      2.49%     45.01% |      558722      2.50%     47.52% |      557360      2.50%     50.01% |      558573      2.50%     52.52% |      556842      2.50%     55.01% |      557620      2.50%     57.51% |      558154      2.50%     60.01% |      557281      2.50%     62.51% |      556853      2.50%     65.01% |      558435      2.50%     67.51% |      556564      2.49%     70.00% |      557773      2.50%     72.50% |      558955      2.51%     75.01% |      558011      2.50%     77.51% |      557466      2.50%     80.01% |      557773      2.50%     82.51% |      557259      2.50%     85.01% |      557104      2.50%     87.50% |      557495      2.50%     90.00% |      558082      2.50%     92.50% |      557341      2.50%     95.00% |      557984      2.50%     97.50% |      557459      2.50%    100.00% (Unspecified)
system.ruby.L1Cache_Controller.I.Request::total     22312077                       (Unspecified)
system.ruby.L1Cache_Controller.I.Response |      557851      2.50%      2.50% |      557487      2.50%      5.00% |      557707      2.50%      7.50% |      557007      2.50%     10.00% |      558161      2.50%     12.50% |      557572      2.50%     15.00% |      558300      2.50%     17.50% |      557744      2.50%     20.00% |      556831      2.50%     22.50% |      558383      2.50%     25.00% |      557945      2.50%     27.50% |      558808      2.50%     30.00% |      556822      2.50%     32.50% |      557569      2.50%     35.00% |      556940      2.50%     37.50% |      557307      2.50%     39.99% |      556036      2.49%     42.49% |      558786      2.50%     44.99% |      558247      2.50%     47.49% |      557986      2.50%     49.99% |      557122      2.50%     52.49% |      558502      2.50%     55.00% |      558741      2.50%     57.50% |      556525      2.49%     59.99% |      559004      2.51%     62.50% |      558072      2.50%     65.00% |      557299      2.50%     67.50% |      557651      2.50%     70.00% |      557698      2.50%     72.50% |      556104      2.49%     74.99% |      556550      2.49%     77.49% |      557973      2.50%     79.99% |      559095      2.51%     82.49% |      557430      2.50%     84.99% |      558404      2.50%     87.50% |      557785      2.50%     90.00% |      558513      2.50%     92.50% |      557571      2.50%     95.00% |      559311      2.51%     97.51% |      556572      2.49%    100.00% (Unspecified)
system.ruby.L1Cache_Controller.I.Response::total     22309411                       (Unspecified)
system.ruby.RequestType.LD.latency_hist_seqr::bucket_size            1                       (Unspecified)
system.ruby.RequestType.LD.latency_hist_seqr::max_bucket            9                       (Unspecified)
system.ruby.RequestType.LD.latency_hist_seqr::samples     22312077                       (Unspecified)
system.ruby.RequestType.LD.latency_hist_seqr::mean            1                       (Unspecified)
system.ruby.RequestType.LD.latency_hist_seqr::gmean            1                       (Unspecified)
system.ruby.RequestType.LD.latency_hist_seqr |           0      0.00%      0.00% |    22312077    100.00%    100.00% |           0      0.00%    100.00% |           0      0.00%    100.00% |           0      0.00%    100.00% |           0      0.00%    100.00% |           0      0.00%    100.00% |           0      0.00%    100.00% |           0      0.00%    100.00% |           0      0.00%    100.00% (Unspecified)
system.ruby.RequestType.LD.latency_hist_seqr::total     22312077                       (Unspecified)
system.ruby.RequestType.LD.hit_latency_hist_seqr::bucket_size            1                       (Unspecified)
system.ruby.RequestType.LD.hit_latency_hist_seqr::max_bucket            9                       (Unspecified)
system.ruby.RequestType.LD.hit_latency_hist_seqr::samples     22312077                       (Unspecified)
system.ruby.RequestType.LD.hit_latency_hist_seqr::mean            1                       (Unspecified)
system.ruby.RequestType.LD.hit_latency_hist_seqr::gmean            1                       (Unspecified)
system.ruby.RequestType.LD.hit_latency_hist_seqr |           0      0.00%      0.00% |    22312077    100.00%    100.00% |           0      0.00%    100.00% |           0      0.00%    100.00% |           0      0.00%    100.00% |           0      0.00%    100.00% |           0      0.00%    100.00% |           0      0.00%    100.00% |           0      0.00%    100.00% |           0      0.00%    100.00% (Unspecified)
system.ruby.RequestType.LD.hit_latency_hist_seqr::total     22312077                       (Unspecified)
system.ruby.RequestType.ST.latency_hist_seqr::bucket_size            1                       (Unspecified)
system.ruby.RequestType.ST.latency_hist_seqr::max_bucket            9                       (Unspecified)
system.ruby.RequestType.ST.latency_hist_seqr::samples     22309411                       (Unspecified)
system.ruby.RequestType.ST.latency_hist_seqr::mean            1                       (Unspecified)
system.ruby.RequestType.ST.latency_hist_seqr::gmean            1                       (Unspecified)
system.ruby.RequestType.ST.latency_hist_seqr |           0      0.00%      0.00% |    22309411    100.00%    100.00% |           0      0.00%    100.00% |           0      0.00%    100.00% |           0      0.00%    100.00% |           0      0.00%    100.00% |           0      0.00%    100.00% |           0      0.00%    100.00% |           0      0.00%    100.00% |           0      0.00%    100.00% (Unspecified)
system.ruby.RequestType.ST.latency_hist_seqr::total     22309411                       (Unspecified)
system.ruby.RequestType.ST.hit_latency_hist_seqr::bucket_size            1                       (Unspecified)
system.ruby.RequestType.ST.hit_latency_hist_seqr::max_bucket            9                       (Unspecified)
system.ruby.RequestType.ST.hit_latency_hist_seqr::samples     22309411                       (Unspecified)
system.ruby.RequestType.ST.hit_latency_hist_seqr::mean            1                       (Unspecified)
system.ruby.RequestType.ST.hit_latency_hist_seqr::gmean            1                       (Unspecified)
system.ruby.RequestType.ST.hit_latency_hist_seqr |           0      0.00%      0.00% |    22309411    100.00%    100.00% |           0      0.00%    100.00% |           0      0.00%    100.00% |           0      0.00%    100.00% |           0      0.00%    100.00% |           0      0.00%    100.00% |           0      0.00%    100.00% |           0      0.00%    100.00% |           0      0.00%    100.00% (Unspecified)
system.ruby.RequestType.ST.hit_latency_hist_seqr::total     22309411                       (Unspecified)
system.ruby.clk_domain.clock                      250                       # Clock period in ticks (Tick)
system.ruby.dir_cntrl0.power_state.pwrStateResidencyTicks::UNDEFINED   2147483750                       # Cumulative time (in ticks) in various power states (Tick)
system.ruby.dir_cntrl0.requestToDir.m_msg_count       138668                       # Number of messages passed the buffer (Count)
system.ruby.dir_cntrl0.requestToDir.m_buf_msgs     0.016143                       # Average number of messages in buffer ((Count/Tick))
system.ruby.dir_cntrl0.responseToDir.m_msg_count        96340                       # Number of messages passed the buffer (Count)
system.ruby.dir_cntrl0.responseToDir.m_buf_msgs     0.011215                       # Average number of messages in buffer ((Count/Tick))
system.ruby.dir_cntrl1.power_state.pwrStateResidencyTicks::UNDEFINED   2147483750                       # Cumulative time (in ticks) in various power states (Tick)
system.ruby.dir_cntrl1.requestToDir.m_msg_count       139207                       # Number of messages passed the buffer (Count)
system.ruby.dir_cntrl1.requestToDir.m_buf_msgs     0.016206                       # Average number of messages in buffer ((Count/Tick))
system.ruby.dir_cntrl1.responseToDir.m_msg_count        96009                       # Number of messages passed the buffer (Count)
system.ruby.dir_cntrl1.responseToDir.m_buf_msgs     0.011177                       # Average number of messages in buffer ((Count/Tick))
system.ruby.dir_cntrl10.power_state.pwrStateResidencyTicks::UNDEFINED   2147483750                       # Cumulative time (in ticks) in various power states (Tick)
system.ruby.dir_cntrl10.requestToDir.m_msg_count       139329                       # Number of messages passed the buffer (Count)
system.ruby.dir_cntrl10.requestToDir.m_buf_msgs     0.016220                       # Average number of messages in buffer ((Count/Tick))
system.ruby.dir_cntrl10.responseToDir.m_msg_count        95934                       # Number of messages passed the buffer (Count)
system.ruby.dir_cntrl10.responseToDir.m_buf_msgs     0.011168                       # Average number of messages in buffer ((Count/Tick))
system.ruby.dir_cntrl100.power_state.pwrStateResidencyTicks::UNDEFINED   2147483750                       # Cumulative time (in ticks) in various power states (Tick)
system.ruby.dir_cntrl100.requestToDir.m_msg_count       140152                       # Number of messages passed the buffer (Count)
system.ruby.dir_cntrl100.requestToDir.m_buf_msgs     0.016316                       # Average number of messages in buffer ((Count/Tick))
system.ruby.dir_cntrl100.responseToDir.m_msg_count        96213                       # Number of messages passed the buffer (Count)
system.ruby.dir_cntrl100.responseToDir.m_buf_msgs     0.011201                       # Average number of messages in buffer ((Count/Tick))
system.ruby.dir_cntrl101.power_state.pwrStateResidencyTicks::UNDEFINED   2147483750                       # Cumulative time (in ticks) in various power states (Tick)
system.ruby.dir_cntrl101.requestToDir.m_msg_count       138964                       # Number of messages passed the buffer (Count)
system.ruby.dir_cntrl101.requestToDir.m_buf_msgs     0.016178                       # Average number of messages in buffer ((Count/Tick))
system.ruby.dir_cntrl101.responseToDir.m_msg_count        96332                       # Number of messages passed the buffer (Count)
system.ruby.dir_cntrl101.responseToDir.m_buf_msgs     0.011215                       # Average number of messages in buffer ((Count/Tick))
system.ruby.dir_cntrl102.power_state.pwrStateResidencyTicks::UNDEFINED   2147483750                       # Cumulative time (in ticks) in various power states (Tick)
system.ruby.dir_cntrl102.requestToDir.m_msg_count       139423                       # Number of messages passed the buffer (Count)
system.ruby.dir_cntrl102.requestToDir.m_buf_msgs     0.016231                       # Average number of messages in buffer ((Count/Tick))
system.ruby.dir_cntrl102.responseToDir.m_msg_count        96288                       # Number of messages passed the buffer (Count)
system.ruby.dir_cntrl102.responseToDir.m_buf_msgs     0.011209                       # Average number of messages in buffer ((Count/Tick))
system.ruby.dir_cntrl103.power_state.pwrStateResidencyTicks::UNDEFINED   2147483750                       # Cumulative time (in ticks) in various power states (Tick)
system.ruby.dir_cntrl103.requestToDir.m_msg_count       139200                       # Number of messages passed the buffer (Count)
system.ruby.dir_cntrl103.requestToDir.m_buf_msgs     0.016205                       # Average number of messages in buffer ((Count/Tick))
system.ruby.dir_cntrl103.responseToDir.m_msg_count        95815                       # Number of messages passed the buffer (Count)
system.ruby.dir_cntrl103.responseToDir.m_buf_msgs     0.011154                       # Average number of messages in buffer ((Count/Tick))
system.ruby.dir_cntrl104.power_state.pwrStateResidencyTicks::UNDEFINED   2147483750                       # Cumulative time (in ticks) in various power states (Tick)
system.ruby.dir_cntrl104.requestToDir.m_msg_count       139074                       # Number of messages passed the buffer (Count)
system.ruby.dir_cntrl104.requestToDir.m_buf_msgs     0.016190                       # Average number of messages in buffer ((Count/Tick))
system.ruby.dir_cntrl104.responseToDir.m_msg_count        96008                       # Number of messages passed the buffer (Count)
system.ruby.dir_cntrl104.responseToDir.m_buf_msgs     0.011177                       # Average number of messages in buffer ((Count/Tick))
system.ruby.dir_cntrl105.power_state.pwrStateResidencyTicks::UNDEFINED   2147483750                       # Cumulative time (in ticks) in various power states (Tick)
system.ruby.dir_cntrl105.requestToDir.m_msg_count       139450                       # Number of messages passed the buffer (Count)
system.ruby.dir_cntrl105.requestToDir.m_buf_msgs     0.016234                       # Average number of messages in buffer ((Count/Tick))
system.ruby.dir_cntrl105.responseToDir.m_msg_count        96567                       # Number of messages passed the buffer (Count)
system.ruby.dir_cntrl105.responseToDir.m_buf_msgs     0.011242                       # Average number of messages in buffer ((Count/Tick))
system.ruby.dir_cntrl106.power_state.pwrStateResidencyTicks::UNDEFINED   2147483750                       # Cumulative time (in ticks) in various power states (Tick)
system.ruby.dir_cntrl106.requestToDir.m_msg_count       139646                       # Number of messages passed the buffer (Count)
system.ruby.dir_cntrl106.requestToDir.m_buf_msgs     0.016257                       # Average number of messages in buffer ((Count/Tick))
system.ruby.dir_cntrl106.responseToDir.m_msg_count        96114                       # Number of messages passed the buffer (Count)
system.ruby.dir_cntrl106.responseToDir.m_buf_msgs     0.011189                       # Average number of messages in buffer ((Count/Tick))
system.ruby.dir_cntrl107.power_state.pwrStateResidencyTicks::UNDEFINED   2147483750                       # Cumulative time (in ticks) in various power states (Tick)
system.ruby.dir_cntrl107.requestToDir.m_msg_count       139194                       # Number of messages passed the buffer (Count)
system.ruby.dir_cntrl107.requestToDir.m_buf_msgs     0.016204                       # Average number of messages in buffer ((Count/Tick))
system.ruby.dir_cntrl107.responseToDir.m_msg_count        95815                       # Number of messages passed the buffer (Count)
system.ruby.dir_cntrl107.responseToDir.m_buf_msgs     0.011154                       # Average number of messages in buffer ((Count/Tick))
system.ruby.dir_cntrl108.power_state.pwrStateResidencyTicks::UNDEFINED   2147483750                       # Cumulative time (in ticks) in various power states (Tick)
system.ruby.dir_cntrl108.requestToDir.m_msg_count       139293                       # Number of messages passed the buffer (Count)
system.ruby.dir_cntrl108.requestToDir.m_buf_msgs     0.016216                       # Average number of messages in buffer ((Count/Tick))
system.ruby.dir_cntrl108.responseToDir.m_msg_count        95858                       # Number of messages passed the buffer (Count)
system.ruby.dir_cntrl108.responseToDir.m_buf_msgs     0.011159                       # Average number of messages in buffer ((Count/Tick))
system.ruby.dir_cntrl109.power_state.pwrStateResidencyTicks::UNDEFINED   2147483750                       # Cumulative time (in ticks) in various power states (Tick)
system.ruby.dir_cntrl109.requestToDir.m_msg_count       139074                       # Number of messages passed the buffer (Count)
system.ruby.dir_cntrl109.requestToDir.m_buf_msgs     0.016190                       # Average number of messages in buffer ((Count/Tick))
system.ruby.dir_cntrl109.responseToDir.m_msg_count        95932                       # Number of messages passed the buffer (Count)
system.ruby.dir_cntrl109.responseToDir.m_buf_msgs     0.011168                       # Average number of messages in buffer ((Count/Tick))
system.ruby.dir_cntrl11.power_state.pwrStateResidencyTicks::UNDEFINED   2147483750                       # Cumulative time (in ticks) in various power states (Tick)
system.ruby.dir_cntrl11.requestToDir.m_msg_count       139308                       # Number of messages passed the buffer (Count)
system.ruby.dir_cntrl11.requestToDir.m_buf_msgs     0.016218                       # Average number of messages in buffer ((Count/Tick))
system.ruby.dir_cntrl11.responseToDir.m_msg_count        96372                       # Number of messages passed the buffer (Count)
[...]
system.ruby.network.sankey.vcvn13.vcvn5             0                       (Unspecified)
system.ruby.network.sankey.vcvn13.vcvn6             0                       (Unspecified)
system.ruby.network.sankey.vcvn13.vcvn7             0                       (Unspecified)
system.ruby.network.sankey.vcvn13.vcvn8             0                       (Unspecified)
system.ruby.network.sankey.vcvn13.vcvn9             0                       (Unspecified)
system.ruby.network.sankey.vcvn14.vcvn0             0                       (Unspecified)
system.ruby.network.sankey.vcvn14.vcvn1             0                       (Unspecified)
system.ruby.network.sankey.vcvn14.vcvn10            0                       (Unspecified)
system.ruby.network.sankey.vcvn14.vcvn11            0                       (Unspecified)
system.ruby.network.sankey.vcvn14.vcvn12            0                       (Unspecified)
system.ruby.network.sankey.vcvn14.vcvn13            0                       (Unspecified)
system.ruby.network.sankey.vcvn14.vcvn14      7257549                       (Unspecified)
system.ruby.network.sankey.vcvn14.vcvn15            0                       (Unspecified)
system.ruby.network.sankey.vcvn14.vcvn16            0                       (Unspecified)
system.ruby.network.sankey.vcvn14.vcvn17            0                       (Unspecified)
system.ruby.network.sankey.vcvn14.vcvn2             0                       (Unspecified)
system.ruby.network.sankey.vcvn14.vcvn3             0                       (Unspecified)
system.ruby.network.sankey.vcvn14.vcvn4             0                       (Unspecified)
system.ruby.network.sankey.vcvn14.vcvn5             0                       (Unspecified)
system.ruby.network.sankey.vcvn14.vcvn6             0                       (Unspecified)
system.ruby.network.sankey.vcvn14.vcvn7             0                       (Unspecified)
system.ruby.network.sankey.vcvn14.vcvn8             0                       (Unspecified)
system.ruby.network.sankey.vcvn14.vcvn9             0                       (Unspecified)
system.ruby.network.sankey.vcvn15.vcvn0             0                       (Unspecified)
system.ruby.network.sankey.vcvn15.vcvn1             0                       (Unspecified)
system.ruby.network.sankey.vcvn15.vcvn10            0                       (Unspecified)
system.ruby.network.sankey.vcvn15.vcvn11            0                       (Unspecified)
system.ruby.network.sankey.vcvn15.vcvn12            0                       (Unspecified)
system.ruby.network.sankey.vcvn15.vcvn13            0                       (Unspecified)
system.ruby.network.sankey.vcvn15.vcvn14            0                       (Unspecified)
system.ruby.network.sankey.vcvn15.vcvn15      4365181                       (Unspecified)
system.ruby.network.sankey.vcvn15.vcvn16            0                       (Unspecified)
system.ruby.network.sankey.vcvn15.vcvn17            0                       (Unspecified)
system.ruby.network.sankey.vcvn15.vcvn2             0                       (Unspecified)
system.ruby.network.sankey.vcvn15.vcvn3             0                       (Unspecified)
system.ruby.network.sankey.vcvn15.vcvn4             0                       (Unspecified)
system.ruby.network.sankey.vcvn15.vcvn5             0                       (Unspecified)
system.ruby.network.sankey.vcvn15.vcvn6             0                       (Unspecified)
system.ruby.network.sankey.vcvn15.vcvn7             0                       (Unspecified)
system.ruby.network.sankey.vcvn15.vcvn8             0                       (Unspecified)
system.ruby.network.sankey.vcvn15.vcvn9             0                       (Unspecified)
system.ruby.network.sankey.vcvn16.vcvn0             0                       (Unspecified)
system.ruby.network.sankey.vcvn16.vcvn1             0                       (Unspecified)
system.ruby.network.sankey.vcvn16.vcvn10            0                       (Unspecified)
system.ruby.network.sankey.vcvn16.vcvn11            0                       (Unspecified)
system.ruby.network.sankey.vcvn16.vcvn12            0                       (Unspecified)
system.ruby.network.sankey.vcvn16.vcvn13            0                       (Unspecified)
system.ruby.network.sankey.vcvn16.vcvn14            0                       (Unspecified)
system.ruby.network.sankey.vcvn16.vcvn15            0                       (Unspecified)
system.ruby.network.sankey.vcvn16.vcvn16      2436963                       (Unspecified)
system.ruby.network.sankey.vcvn16.vcvn17            0                       (Unspecified)
system.ruby.network.sankey.vcvn16.vcvn2             0                       (Unspecified)
system.ruby.network.sankey.vcvn16.vcvn3             0                       (Unspecified)
system.ruby.network.sankey.vcvn16.vcvn4             0                       (Unspecified)
system.ruby.network.sankey.vcvn16.vcvn5             0                       (Unspecified)
system.ruby.network.sankey.vcvn16.vcvn6             0                       (Unspecified)
system.ruby.network.sankey.vcvn16.vcvn7             0                       (Unspecified)
system.ruby.network.sankey.vcvn16.vcvn8             0                       (Unspecified)
system.ruby.network.sankey.vcvn16.vcvn9             0                       (Unspecified)
system.ruby.network.sankey.vcvn17.vcvn0             0                       (Unspecified)
system.ruby.network.sankey.vcvn17.vcvn1             0                       (Unspecified)
system.ruby.network.sankey.vcvn17.vcvn10            0                       (Unspecified)
system.ruby.network.sankey.vcvn17.vcvn11            0                       (Unspecified)
system.ruby.network.sankey.vcvn17.vcvn12            0                       (Unspecified)
system.ruby.network.sankey.vcvn17.vcvn13            0                       (Unspecified)
system.ruby.network.sankey.vcvn17.vcvn14            0                       (Unspecified)
system.ruby.network.sankey.vcvn17.vcvn15            0                       (Unspecified)
system.ruby.network.sankey.vcvn17.vcvn16            0                       (Unspecified)
system.ruby.network.sankey.vcvn17.vcvn17      6089183                       (Unspecified)
system.ruby.network.sankey.vcvn17.vcvn2             0                       (Unspecified)
system.ruby.network.sankey.vcvn17.vcvn3             0                       (Unspecified)
system.ruby.network.sankey.vcvn17.vcvn4             0                       (Unspecified)
system.ruby.network.sankey.vcvn17.vcvn5             0                       (Unspecified)
system.ruby.network.sankey.vcvn17.vcvn6             0                       (Unspecified)
system.ruby.network.sankey.vcvn17.vcvn7             0                       (Unspecified)
system.ruby.network.sankey.vcvn17.vcvn8             0                       (Unspecified)
system.ruby.network.sankey.vcvn17.vcvn9             0                       (Unspecified)
system.ruby.network.sankey.vcvn2.vcvn0              0                       (Unspecified)
system.ruby.network.sankey.vcvn2.vcvn1              0                       (Unspecified)
system.ruby.network.sankey.vcvn2.vcvn10             0                       (Unspecified)
system.ruby.network.sankey.vcvn2.vcvn11             0                       (Unspecified)
system.ruby.network.sankey.vcvn2.vcvn12             0                       (Unspecified)
system.ruby.network.sankey.vcvn2.vcvn13             0                       (Unspecified)
system.ruby.network.sankey.vcvn2.vcvn14             0                       (Unspecified)
system.ruby.network.sankey.vcvn2.vcvn15             0                       (Unspecified)
system.ruby.network.sankey.vcvn2.vcvn16             0                       (Unspecified)
system.ruby.network.sankey.vcvn2.vcvn17             0                       (Unspecified)
system.ruby.network.sankey.vcvn2.vcvn2        4602001                       (Unspecified)
system.ruby.network.sankey.vcvn2.vcvn3              0                       (Unspecified)
system.ruby.network.sankey.vcvn2.vcvn4              0                       (Unspecified)
system.ruby.network.sankey.vcvn2.vcvn5              0                       (Unspecified)
system.ruby.network.sankey.vcvn2.vcvn6              0                       (Unspecified)
system.ruby.network.sankey.vcvn2.vcvn7              0                       (Unspecified)
system.ruby.network.sankey.vcvn2.vcvn8              0                       (Unspecified)
system.ruby.network.sankey.vcvn2.vcvn9              0                       (Unspecified)
system.ruby.network.sankey.vcvn3.vcvn0              0                       (Unspecified)
system.ruby.network.sankey.vcvn3.vcvn1              0                       (Unspecified)
system.ruby.network.sankey.vcvn3.vcvn10             0                       (Unspecified)
system.ruby.network.sankey.vcvn3.vcvn11             0                       (Unspecified)
system.ruby.network.sankey.vcvn3.vcvn12             0                       (Unspecified)
system.ruby.network.sankey.vcvn3.vcvn13             0                       (Unspecified)
system.ruby.network.sankey.vcvn3.vcvn14             0                       (Unspecified)
system.ruby.network.sankey.vcvn3.vcvn15             0                       (Unspecified)
system.ruby.network.sankey.vcvn3.vcvn16             0                       (Unspecified)
system.ruby.network.sankey.vcvn3.vcvn17             0                       (Unspecified)
system.ruby.network.sankey.vcvn3.vcvn2              0                       (Unspecified)
system.ruby.network.sankey.vcvn3.vcvn3        2609713                       (Unspecified)
system.ruby.network.sankey.vcvn3.vcvn4              0                       (Unspecified)
system.ruby.network.sankey.vcvn3.vcvn5              0                       (Unspecified)
system.ruby.network.sankey.vcvn3.vcvn6              0                       (Unspecified)
system.ruby.network.sankey.vcvn3.vcvn7              0                       (Unspecified)
system.ruby.network.sankey.vcvn3.vcvn8              0                       (Unspecified)
system.ruby.network.sankey.vcvn3.vcvn9              0                       (Unspecified)
system.ruby.network.sankey.vcvn4.vcvn0              0                       (Unspecified)
system.ruby.network.sankey.vcvn4.vcvn1              0                       (Unspecified)
system.ruby.network.sankey.vcvn4.vcvn10             0                       (Unspecified)
system.ruby.network.sankey.vcvn4.vcvn11             0                       (Unspecified)
system.ruby.network.sankey.vcvn4.vcvn12             0                       (Unspecified)
system.ruby.network.sankey.vcvn4.vcvn13             0                       (Unspecified)
system.ruby.network.sankey.vcvn4.vcvn14             0                       (Unspecified)
system.ruby.network.sankey.vcvn4.vcvn15             0                       (Unspecified)
system.ruby.network.sankey.vcvn4.vcvn16             0                       (Unspecified)
system.ruby.network.sankey.vcvn4.vcvn17             0                       (Unspecified)
system.ruby.network.sankey.vcvn4.vcvn2              0                       (Unspecified)
system.ruby.network.sankey.vcvn4.vcvn3              0                       (Unspecified)
system.ruby.network.sankey.vcvn4.vcvn4        2640319                       (Unspecified)
system.ruby.network.sankey.vcvn4.vcvn5              0                       (Unspecified)
system.ruby.network.sankey.vcvn4.vcvn6              0                       (Unspecified)
system.ruby.network.sankey.vcvn4.vcvn7              0                       (Unspecified)
system.ruby.network.sankey.vcvn4.vcvn8              0                       (Unspecified)
system.ruby.network.sankey.vcvn4.vcvn9              0                       (Unspecified)
system.ruby.network.sankey.vcvn5.vcvn0              0                       (Unspecified)
system.ruby.network.sankey.vcvn5.vcvn1              0                       (Unspecified)
system.ruby.network.sankey.vcvn5.vcvn10             0                       (Unspecified)
system.ruby.network.sankey.vcvn5.vcvn11             0                       (Unspecified)
system.ruby.network.sankey.vcvn5.vcvn12             0                       (Unspecified)
system.ruby.network.sankey.vcvn5.vcvn13             0                       (Unspecified)
system.ruby.network.sankey.vcvn5.vcvn14             0                       (Unspecified)
system.ruby.network.sankey.vcvn5.vcvn15             0                       (Unspecified)
system.ruby.network.sankey.vcvn5.vcvn16             0                       (Unspecified)
system.ruby.network.sankey.vcvn5.vcvn17             0                       (Unspecified)
system.ruby.network.sankey.vcvn5.vcvn2              0                       (Unspecified)
system.ruby.network.sankey.vcvn5.vcvn3              0                       (Unspecified)
system.ruby.network.sankey.vcvn5.vcvn4              0                       (Unspecified)
system.ruby.network.sankey.vcvn5.vcvn5        2611281                       (Unspecified)
system.ruby.network.sankey.vcvn5.vcvn6              0                       (Unspecified)
system.ruby.network.sankey.vcvn5.vcvn7              0                       (Unspecified)
system.ruby.network.sankey.vcvn5.vcvn8              0                       (Unspecified)
system.ruby.network.sankey.vcvn5.vcvn9              0                       (Unspecified)
system.ruby.network.sankey.vcvn6.vcvn0              0                       (Unspecified)
system.ruby.network.sankey.vcvn6.vcvn1              0                       (Unspecified)
system.ruby.network.sankey.vcvn6.vcvn10             0                       (Unspecified)
system.ruby.network.sankey.vcvn6.vcvn11             0                       (Unspecified)
system.ruby.network.sankey.vcvn6.vcvn12             0                       (Unspecified)
system.ruby.network.sankey.vcvn6.vcvn13             0                       (Unspecified)
system.ruby.network.sankey.vcvn6.vcvn14             0                       (Unspecified)
system.ruby.network.sankey.vcvn6.vcvn15             0                       (Unspecified)
system.ruby.network.sankey.vcvn6.vcvn16             0                       (Unspecified)
system.ruby.network.sankey.vcvn6.vcvn17             0                       (Unspecified)
system.ruby.network.sankey.vcvn6.vcvn2              0                       (Unspecified)
system.ruby.network.sankey.vcvn6.vcvn3              0                       (Unspecified)
system.ruby.network.sankey.vcvn6.vcvn4              0                       (Unspecified)
system.ruby.network.sankey.vcvn6.vcvn5              0                       (Unspecified)
system.ruby.network.sankey.vcvn6.vcvn6              0                       (Unspecified)
system.ruby.network.sankey.vcvn6.vcvn7              0                       (Unspecified)
system.ruby.network.sankey.vcvn6.vcvn8              0                       (Unspecified)
system.ruby.network.sankey.vcvn6.vcvn9              0                       (Unspecified)
system.ruby.network.sankey.vcvn7.vcvn0              0                       (Unspecified)
system.ruby.network.sankey.vcvn7.vcvn1              0                       (Unspecified)
system.ruby.network.sankey.vcvn7.vcvn10             0                       (Unspecified)
system.ruby.network.sankey.vcvn7.vcvn11             0                       (Unspecified)
system.ruby.network.sankey.vcvn7.vcvn12             0                       (Unspecified)
system.ruby.network.sankey.vcvn7.vcvn13             0                       (Unspecified)
system.ruby.network.sankey.vcvn7.vcvn14             0                       (Unspecified)
system.ruby.network.sankey.vcvn7.vcvn15             0                       (Unspecified)
system.ruby.network.sankey.vcvn7.vcvn16             0                       (Unspecified)
system.ruby.network.sankey.vcvn7.vcvn17             0                       (Unspecified)
system.ruby.network.sankey.vcvn7.vcvn2              0                       (Unspecified)
system.ruby.network.sankey.vcvn7.vcvn3              0                       (Unspecified)
system.ruby.network.sankey.vcvn7.vcvn4              0                       (Unspecified)
system.ruby.network.sankey.vcvn7.vcvn5              0                       (Unspecified)
system.ruby.network.sankey.vcvn7.vcvn6              0                       (Unspecified)
system.ruby.network.sankey.vcvn7.vcvn7              0                       (Unspecified)
system.ruby.network.sankey.vcvn7.vcvn8              0                       (Unspecified)
system.ruby.network.sankey.vcvn7.vcvn9              0                       (Unspecified)
system.ruby.network.sankey.vcvn8.vcvn0              0                       (Unspecified)
system.ruby.network.sankey.vcvn8.vcvn1              0                       (Unspecified)
system.ruby.network.sankey.vcvn8.vcvn10             0                       (Unspecified)
system.ruby.network.sankey.vcvn8.vcvn11             0                       (Unspecified)
system.ruby.network.sankey.vcvn8.vcvn12             0                       (Unspecified)
system.ruby.network.sankey.vcvn8.vcvn13             0                       (Unspecified)
system.ruby.network.sankey.vcvn8.vcvn14             0                       (Unspecified)
system.ruby.network.sankey.vcvn8.vcvn15             0                       (Unspecified)
system.ruby.network.sankey.vcvn8.vcvn16             0                       (Unspecified)
system.ruby.network.sankey.vcvn8.vcvn17             0                       (Unspecified)
system.ruby.network.sankey.vcvn8.vcvn2              0                       (Unspecified)
system.ruby.network.sankey.vcvn8.vcvn3              0                       (Unspecified)
system.ruby.network.sankey.vcvn8.vcvn4              0                       (Unspecified)
system.ruby.network.sankey.vcvn8.vcvn5              0                       (Unspecified)
system.ruby.network.sankey.vcvn8.vcvn6              0                       (Unspecified)
system.ruby.network.sankey.vcvn8.vcvn7              0                       (Unspecified)
system.ruby.network.sankey.vcvn8.vcvn8              0                       (Unspecified)
system.ruby.network.sankey.vcvn8.vcvn9              0                       (Unspecified)
system.ruby.network.sankey.vcvn9.vcvn0              0                       (Unspecified)
system.ruby.network.sankey.vcvn9.vcvn1              0                       (Unspecified)
system.ruby.network.sankey.vcvn9.vcvn10             0                       (Unspecified)
system.ruby.network.sankey.vcvn9.vcvn11             0                       (Unspecified)
system.ruby.network.sankey.vcvn9.vcvn12             0                       (Unspecified)
system.ruby.network.sankey.vcvn9.vcvn13             0                       (Unspecified)
system.ruby.network.sankey.vcvn9.vcvn14             0                       (Unspecified)
system.ruby.network.sankey.vcvn9.vcvn15             0                       (Unspecified)
system.ruby.network.sankey.vcvn9.vcvn16             0                       (Unspecified)
system.ruby.network.sankey.vcvn9.vcvn17             0                       (Unspecified)
system.ruby.network.sankey.vcvn9.vcvn2              0                       (Unspecified)
system.ruby.network.sankey.vcvn9.vcvn3              0                       (Unspecified)
system.ruby.network.sankey.vcvn9.vcvn4              0                       (Unspecified)
system.ruby.network.sankey.vcvn9.vcvn5              0                       (Unspecified)
system.ruby.network.sankey.vcvn9.vcvn6              0                       (Unspecified)
system.ruby.network.sankey.vcvn9.vcvn7              0                       (Unspecified)
system.ruby.network.sankey.vcvn9.vcvn8              0                       (Unspecified)
system.ruby.network.sankey.vcvn9.vcvn9              0                       (Unspecified)

---------- End Simulation Statistics   ----------
