gem5 Simulator System.  https://www.gem5.org
gem5 is copyrighted software; use the --copyright option for details.

gem5 version 22.0.0.2
gem5 compiled Jun 17 2023 14:31:12
gem5 started Nov 18 2023 15:54:12
gem5 executing on mnemosyne24.ecn.purdue.edu, pid 16895
command line: ./build/Garnet_standalone/gem5.fast -d ./synth_outputs/simple/2b/mixed/nndbt_none_2_6_40cpus_4xdirs_4.0GHz/mem/ns_m_latop/0_17/ configs/auto_top/auto_top_synth.py --topology EscapeVirtualNetworks --noi_routers 20 --sim-cycles 2147483647 --injectionrate 0.17 --noc_clk 4.0GHz --sys-clock 4.0GHz --ruby-clock 4.0GHz --noi_clk 3.0GHz --router_map_file configs/topologies/paper_solutions/ns_m_latop.map --flat_vn_map_file configs/topologies/vn_maps_ndbt/ns_m_latop_nndbt_none_2vns.vn --flat_nr_map_file configs/topologies/nr_list_ndbt/ns_m_latop_nndbt.nrl --ruby --mem_or_coh mem --mem-size 320000000 --num-dirs 64 --num-cpus 40 --network garnet --mem-type SimpleMemory --routing-algorithm 2 --use_escape_vns --synth_traffic --vcs-per-vnet 6 --evn_deadlock_partition 4 --evn_n_deadlock_free 1 --evn_min_n_deadlock_free 2

info: Standard input is not a terminal, disabling listeners.
ingesting configs/topologies/vn_maps_ndbt/ns_m_latop_nndbt_none_2vns.vn
cpus(40)=[<m5.objects.GarnetSyntheticTraffic.GarnetSyntheticTraffic object at 0x7f2424f190f0>, <m5.objects.GarnetSyntheticTraffic.GarnetSyntheticTraffic object at 0x7f2424f19e80>, <m5.objects.GarnetSyntheticTraffic.GarnetSyntheticTraffic object at 0x7f2424a96198>, <m5.objects.GarnetSyntheticTraffic.GarnetSyntheticTraffic object at 0x7f2424a96470>, <m5.objects.GarnetSyntheticTraffic.GarnetSyntheticTraffic object at 0x7f2424a96748>, <m5.objects.GarnetSyntheticTraffic.GarnetSyntheticTraffic object at 0x7f2424a96a20>, <m5.objects.GarnetSyntheticTraffic.GarnetSyntheticTraffic object at 0x7f2424a96cf8>, <m5.objects.GarnetSyntheticTraffic.GarnetSyntheticTraffic object at 0x7f2424a96fd0>, <m5.objects.GarnetSyntheticTraffic.GarnetSyntheticTraffic object at 0x7f2424a9f2e8>, <m5.objects.GarnetSyntheticTraffic.GarnetSyntheticTraffic object at 0x7f2424a9f5c0>, <m5.objects.GarnetSyntheticTraffic.GarnetSyntheticTraffic object at 0x7f2424a9f898>, <m5.objects.GarnetSyntheticTraffic.GarnetSyntheticTraffic object at 0x7f2424a9fb70>, <m5.objects.GarnetSyntheticTraffic.GarnetSyntheticTraffic object at 0x7f2424f19908>, <m5.objects.GarnetSyntheticTraffic.GarnetSyntheticTraffic object at 0x7f2424f09e48>, <m5.objects.GarnetSyntheticTraffic.GarnetSyntheticTraffic object at 0x7f2424f14630>, <m5.objects.GarnetSyntheticTraffic.GarnetSyntheticTraffic object at 0x7f2424f14cc0>, <m5.objects.GarnetSyntheticTraffic.GarnetSyntheticTraffic object at 0x7f2424a9fdd8>, <m5.objects.GarnetSyntheticTraffic.GarnetSyntheticTraffic object at 0x7f2424aab0f0>, <m5.objects.GarnetSyntheticTraffic.GarnetSyntheticTraffic object at 0x7f2424aab3c8>, <m5.objects.GarnetSyntheticTraffic.GarnetSyntheticTraffic object at 0x7f2424aab6a0>, <m5.objects.GarnetSyntheticTraffic.GarnetSyntheticTraffic object at 0x7f2424aab978>, <m5.objects.GarnetSyntheticTraffic.GarnetSyntheticTraffic object at 0x7f2424aabc50>, <m5.objects.GarnetSyntheticTraffic.GarnetSyntheticTraffic object at 0x7f2424aabf28>, <m5.objects.GarnetSyntheticTraffic.GarnetSyntheticTraffic object at 0x7f2424ab2240>, <m5.objects.GarnetSyntheticTraffic.GarnetSyntheticTraffic object at 0x7f2424ab2518>, <m5.objects.GarnetSyntheticTraffic.GarnetSyntheticTraffic object at 0x7f2424ab27f0>, <m5.objects.GarnetSyntheticTraffic.GarnetSyntheticTraffic object at 0x7f2424ab2ac8>, <m5.objects.GarnetSyntheticTraffic.GarnetSyntheticTraffic object at 0x7f2424ab2da0>, <m5.objects.GarnetSyntheticTraffic.GarnetSyntheticTraffic object at 0x7f2424aba0b8>, <m5.objects.GarnetSyntheticTraffic.GarnetSyntheticTraffic object at 0x7f2424aba390>, <m5.objects.GarnetSyntheticTraffic.GarnetSyntheticTraffic object at 0x7f2424aba668>, <m5.objects.GarnetSyntheticTraffic.GarnetSyntheticTraffic object at 0x7f2424aba940>, <m5.objects.GarnetSyntheticTraffic.GarnetSyntheticTraffic object at 0x7f2424abac18>, <m5.objects.GarnetSyntheticTraffic.GarnetSyntheticTraffic object at 0x7f2424abaef0>, <m5.objects.GarnetSyntheticTraffic.GarnetSyntheticTraffic object at 0x7f2424ac3208>, <m5.objects.GarnetSyntheticTraffic.GarnetSyntheticTraffic object at 0x7f2424ac34e0>, <m5.objects.GarnetSyntheticTraffic.GarnetSyntheticTraffic object at 0x7f2424ac37b8>, <m5.objects.GarnetSyntheticTraffic.GarnetSyntheticTraffic object at 0x7f2424ac3a90>, <m5.objects.GarnetSyntheticTraffic.GarnetSyntheticTraffic object at 0x7f2424ac3d68>, <m5.objects.GarnetSyntheticTraffic.GarnetSyntheticTraffic object at 0x7f2424aca080>])
ingesting configs/topologies/nr_list_ndbt/ns_m_latop_nndbt.nrl
ingesting configs/topologies/vn_maps_ndbt/ns_m_latop_nndbt_none_2vns.vn
ext_cdc_required = True
