gem5 Simulator System.  https://www.gem5.org
gem5 is copyrighted software; use the --copyright option for details.

gem5 version 22.0.0.2
gem5 compiled Jun 17 2023 14:31:12
gem5 started Nov 18 2023 15:50:38
gem5 executing on mnemosyne14.ecn.purdue.edu, pid 23953
command line: ./build/Garnet_standalone/gem5.fast -d ./synth_outputs/simple/2b/mixed/mclb_hops_4_6_40cpus_4xdirs_4.0GHz/coh/lpbt_m_latop/0_185/ configs/auto_top/auto_top_synth.py --topology EscapeVirtualNetworks --noi_routers 20 --sim-cycles 2147483647 --injectionrate 0.185 --noc_clk 4.0GHz --sys-clock 4.0GHz --ruby-clock 4.0GHz --noi_clk 3.0GHz --router_map_file configs/topologies/paper_solutions/lpbt_m_latop.map --flat_vn_map_file configs/topologies/vn_maps_mclb/lpbt_m_latop_mclb_hops_4vns.vn --flat_nr_map_file configs/topologies/nr_list_mclb/lpbt_m_latop_mclb.nrl --ruby --mem_or_coh coh --mem-size 320000000 --num-dirs 160 --num-cpus 40 --network garnet --mem-type SimpleMemory --routing-algorithm 2 --use_escape_vns --synth_traffic --vcs-per-vnet 6 --evn_deadlock_partition 2 --evn_n_deadlock_free 1 --evn_min_n_deadlock_free 4

info: Standard input is not a terminal, disabling listeners.
ingesting configs/topologies/vn_maps_mclb/lpbt_m_latop_mclb_hops_4vns.vn
cpus(40)=[<m5.objects.GarnetSyntheticTraffic.GarnetSyntheticTraffic object at 0x7fd1832d0080>, <m5.objects.GarnetSyntheticTraffic.GarnetSyntheticTraffic object at 0x7fd1832d0e48>, <m5.objects.GarnetSyntheticTraffic.GarnetSyntheticTraffic object at 0x7fd182e4d160>, <m5.objects.GarnetSyntheticTraffic.GarnetSyntheticTraffic object at 0x7fd182e4d438>, <m5.objects.GarnetSyntheticTraffic.GarnetSyntheticTraffic object at 0x7fd182e4d710>, <m5.objects.GarnetSyntheticTraffic.GarnetSyntheticTraffic object at 0x7fd182e4d9e8>, <m5.objects.GarnetSyntheticTraffic.GarnetSyntheticTraffic object at 0x7fd182e4dcc0>, <m5.objects.GarnetSyntheticTraffic.GarnetSyntheticTraffic object at 0x7fd182e4df98>, <m5.objects.GarnetSyntheticTraffic.GarnetSyntheticTraffic object at 0x7fd182e562b0>, <m5.objects.GarnetSyntheticTraffic.GarnetSyntheticTraffic object at 0x7fd182e56588>, <m5.objects.GarnetSyntheticTraffic.GarnetSyntheticTraffic object at 0x7fd182e56860>, <m5.objects.GarnetSyntheticTraffic.GarnetSyntheticTraffic object at 0x7fd182e56b38>, <m5.objects.GarnetSyntheticTraffic.GarnetSyntheticTraffic object at 0x7fd1832d0898>, <m5.objects.GarnetSyntheticTraffic.GarnetSyntheticTraffic object at 0x7fd1832c0eb8>, <m5.objects.GarnetSyntheticTraffic.GarnetSyntheticTraffic object at 0x7fd1832ca710>, <m5.objects.GarnetSyntheticTraffic.GarnetSyntheticTraffic object at 0x7fd1832cad68>, <m5.objects.GarnetSyntheticTraffic.GarnetSyntheticTraffic object at 0x7fd182e56da0>, <m5.objects.GarnetSyntheticTraffic.GarnetSyntheticTraffic object at 0x7fd182e620b8>, <m5.objects.GarnetSyntheticTraffic.GarnetSyntheticTraffic object at 0x7fd182e62390>, <m5.objects.GarnetSyntheticTraffic.GarnetSyntheticTraffic object at 0x7fd182e62668>, <m5.objects.GarnetSyntheticTraffic.GarnetSyntheticTraffic object at 0x7fd182e62940>, <m5.objects.GarnetSyntheticTraffic.GarnetSyntheticTraffic object at 0x7fd182e62c18>, <m5.objects.GarnetSyntheticTraffic.GarnetSyntheticTraffic object at 0x7fd182e62ef0>, <m5.objects.GarnetSyntheticTraffic.GarnetSyntheticTraffic object at 0x7fd182e6a208>, <m5.objects.GarnetSyntheticTraffic.GarnetSyntheticTraffic object at 0x7fd182e6a4e0>, <m5.objects.GarnetSyntheticTraffic.GarnetSyntheticTraffic object at 0x7fd182e6a7b8>, <m5.objects.GarnetSyntheticTraffic.GarnetSyntheticTraffic object at 0x7fd182e6aa90>, <m5.objects.GarnetSyntheticTraffic.GarnetSyntheticTraffic object at 0x7fd182e6ad68>, <m5.objects.GarnetSyntheticTraffic.GarnetSyntheticTraffic object at 0x7fd182e71080>, <m5.objects.GarnetSyntheticTraffic.GarnetSyntheticTraffic object at 0x7fd182e71358>, <m5.objects.GarnetSyntheticTraffic.GarnetSyntheticTraffic object at 0x7fd182e71630>, <m5.objects.GarnetSyntheticTraffic.GarnetSyntheticTraffic object at 0x7fd182e71908>, <m5.objects.GarnetSyntheticTraffic.GarnetSyntheticTraffic object at 0x7fd182e71be0>, <m5.objects.GarnetSyntheticTraffic.GarnetSyntheticTraffic object at 0x7fd182e71eb8>, <m5.objects.GarnetSyntheticTraffic.GarnetSyntheticTraffic object at 0x7fd182e7a1d0>, <m5.objects.GarnetSyntheticTraffic.GarnetSyntheticTraffic object at 0x7fd182e7a4a8>, <m5.objects.GarnetSyntheticTraffic.GarnetSyntheticTraffic object at 0x7fd182e7a780>, <m5.objects.GarnetSyntheticTraffic.GarnetSyntheticTraffic object at 0x7fd182e7aa58>, <m5.objects.GarnetSyntheticTraffic.GarnetSyntheticTraffic object at 0x7fd182e7ad30>, <m5.objects.GarnetSyntheticTraffic.GarnetSyntheticTraffic object at 0x7fd182e81048>])
ingesting configs/topologies/nr_list_mclb/lpbt_m_latop_mclb.nrl
ingesting configs/topologies/vn_maps_mclb/lpbt_m_latop_mclb_hops_4vns.vn
ext_cdc_required = True
