gem5 Simulator System.  https://www.gem5.org
gem5 is copyrighted software; use the --copyright option for details.

gem5 version 22.0.0.2
gem5 compiled Jun 17 2023 14:31:12
gem5 started Nov 18 2023 15:48:53
gem5 executing on mnemosyne14.ecn.purdue.edu, pid 23325
command line: ./build/Garnet_standalone/gem5.fast -d ./synth_outputs/simple/2b/mixed/mclb_hops_4_6_40cpus_4xdirs_4.0GHz/coh/ns_s_latop/0_155/ configs/auto_top/auto_top_synth.py --topology EscapeVirtualNetworks --noi_routers 20 --sim-cycles 2147483647 --injectionrate 0.155 --noc_clk 4.0GHz --sys-clock 4.0GHz --ruby-clock 4.0GHz --noi_clk 3.6GHz --router_map_file configs/topologies/paper_solutions/ns_s_latop.map --flat_vn_map_file configs/topologies/vn_maps_mclb/ns_s_latop_mclb_hops_4vns.vn --flat_nr_map_file configs/topologies/nr_list_mclb/ns_s_latop_mclb.nrl --ruby --mem_or_coh coh --mem-size 320000000 --num-dirs 160 --num-cpus 40 --network garnet --mem-type SimpleMemory --routing-algorithm 2 --use_escape_vns --synth_traffic --vcs-per-vnet 6 --evn_deadlock_partition 2 --evn_n_deadlock_free 1 --evn_min_n_deadlock_free 4

info: Standard input is not a terminal, disabling listeners.
ingesting configs/topologies/vn_maps_mclb/ns_s_latop_mclb_hops_4vns.vn
cpus(40)=[<m5.objects.GarnetSyntheticTraffic.GarnetSyntheticTraffic object at 0x7fb1dab0f048>, <m5.objects.GarnetSyntheticTraffic.GarnetSyntheticTraffic object at 0x7fb1dab0fe10>, <m5.objects.GarnetSyntheticTraffic.GarnetSyntheticTraffic object at 0x7fb1da68d128>, <m5.objects.GarnetSyntheticTraffic.GarnetSyntheticTraffic object at 0x7fb1da68d400>, <m5.objects.GarnetSyntheticTraffic.GarnetSyntheticTraffic object at 0x7fb1da68d6d8>, <m5.objects.GarnetSyntheticTraffic.GarnetSyntheticTraffic object at 0x7fb1da68d9b0>, <m5.objects.GarnetSyntheticTraffic.GarnetSyntheticTraffic object at 0x7fb1da68dc88>, <m5.objects.GarnetSyntheticTraffic.GarnetSyntheticTraffic object at 0x7fb1da68df60>, <m5.objects.GarnetSyntheticTraffic.GarnetSyntheticTraffic object at 0x7fb1da696278>, <m5.objects.GarnetSyntheticTraffic.GarnetSyntheticTraffic object at 0x7fb1da696550>, <m5.objects.GarnetSyntheticTraffic.GarnetSyntheticTraffic object at 0x7fb1da696828>, <m5.objects.GarnetSyntheticTraffic.GarnetSyntheticTraffic object at 0x7fb1da696b00>, <m5.objects.GarnetSyntheticTraffic.GarnetSyntheticTraffic object at 0x7fb1dab0f860>, <m5.objects.GarnetSyntheticTraffic.GarnetSyntheticTraffic object at 0x7fb1dab00eb8>, <m5.objects.GarnetSyntheticTraffic.GarnetSyntheticTraffic object at 0x7fb1dab0a6d8>, <m5.objects.GarnetSyntheticTraffic.GarnetSyntheticTraffic object at 0x7fb1dab0ad30>, <m5.objects.GarnetSyntheticTraffic.GarnetSyntheticTraffic object at 0x7fb1da696d68>, <m5.objects.GarnetSyntheticTraffic.GarnetSyntheticTraffic object at 0x7fb1da6a2080>, <m5.objects.GarnetSyntheticTraffic.GarnetSyntheticTraffic object at 0x7fb1da6a2358>, <m5.objects.GarnetSyntheticTraffic.GarnetSyntheticTraffic object at 0x7fb1da6a2630>, <m5.objects.GarnetSyntheticTraffic.GarnetSyntheticTraffic object at 0x7fb1da6a2908>, <m5.objects.GarnetSyntheticTraffic.GarnetSyntheticTraffic object at 0x7fb1da6a2be0>, <m5.objects.GarnetSyntheticTraffic.GarnetSyntheticTraffic object at 0x7fb1da6a2eb8>, <m5.objects.GarnetSyntheticTraffic.GarnetSyntheticTraffic object at 0x7fb1da6a91d0>, <m5.objects.GarnetSyntheticTraffic.GarnetSyntheticTraffic object at 0x7fb1da6a94a8>, <m5.objects.GarnetSyntheticTraffic.GarnetSyntheticTraffic object at 0x7fb1da6a9780>, <m5.objects.GarnetSyntheticTraffic.GarnetSyntheticTraffic object at 0x7fb1da6a9a58>, <m5.objects.GarnetSyntheticTraffic.GarnetSyntheticTraffic object at 0x7fb1da6a9d30>, <m5.objects.GarnetSyntheticTraffic.GarnetSyntheticTraffic object at 0x7fb1da6b1048>, <m5.objects.GarnetSyntheticTraffic.GarnetSyntheticTraffic object at 0x7fb1da6b1320>, <m5.objects.GarnetSyntheticTraffic.GarnetSyntheticTraffic object at 0x7fb1da6b15f8>, <m5.objects.GarnetSyntheticTraffic.GarnetSyntheticTraffic object at 0x7fb1da6b18d0>, <m5.objects.GarnetSyntheticTraffic.GarnetSyntheticTraffic object at 0x7fb1da6b1ba8>, <m5.objects.GarnetSyntheticTraffic.GarnetSyntheticTraffic object at 0x7fb1da6b1e80>, <m5.objects.GarnetSyntheticTraffic.GarnetSyntheticTraffic object at 0x7fb1da6ba198>, <m5.objects.GarnetSyntheticTraffic.GarnetSyntheticTraffic object at 0x7fb1da6ba470>, <m5.objects.GarnetSyntheticTraffic.GarnetSyntheticTraffic object at 0x7fb1da6ba748>, <m5.objects.GarnetSyntheticTraffic.GarnetSyntheticTraffic object at 0x7fb1da6baa20>, <m5.objects.GarnetSyntheticTraffic.GarnetSyntheticTraffic object at 0x7fb1da6bacf8>, <m5.objects.GarnetSyntheticTraffic.GarnetSyntheticTraffic object at 0x7fb1da6bafd0>])
ingesting configs/topologies/nr_list_mclb/ns_s_latop_mclb.nrl
ingesting configs/topologies/vn_maps_mclb/ns_s_latop_mclb_hops_4vns.vn
ext_cdc_required = True
