gem5 Simulator System.  https://www.gem5.org
gem5 is copyrighted software; use the --copyright option for details.

gem5 version 22.0.0.2
gem5 compiled Jun 17 2023 14:31:12
gem5 started Nov 18 2023 15:50:07
gem5 executing on mnemosyne14.ecn.purdue.edu, pid 23791
command line: ./build/Garnet_standalone/gem5.fast -d ./synth_outputs/simple/2b/mixed/mclb_hops_4_6_40cpus_4xdirs_4.0GHz/coh/ft_x/0_175/ configs/auto_top/auto_top_synth.py --topology EscapeVirtualNetworks --noi_routers 20 --sim-cycles 2147483647 --injectionrate 0.175 --noc_clk 4.0GHz --sys-clock 4.0GHz --ruby-clock 4.0GHz --noi_clk 3.0GHz --router_map_file configs/topologies/paper_solutions/ft_x.map --flat_vn_map_file configs/topologies/vn_maps_mclb/ft_x_mclb_hops_4vns.vn --flat_nr_map_file configs/topologies/nr_list_mclb/ft_x_mclb.nrl --ruby --mem_or_coh coh --mem-size 320000000 --num-dirs 160 --num-cpus 40 --network garnet --mem-type SimpleMemory --routing-algorithm 2 --use_escape_vns --synth_traffic --vcs-per-vnet 6 --evn_deadlock_partition 2 --evn_n_deadlock_free 1 --evn_min_n_deadlock_free 4

info: Standard input is not a terminal, disabling listeners.
ingesting configs/topologies/vn_maps_mclb/ft_x_mclb_hops_4vns.vn
cpus(40)=[<m5.objects.GarnetSyntheticTraffic.GarnetSyntheticTraffic object at 0x7f204cbb9048>, <m5.objects.GarnetSyntheticTraffic.GarnetSyntheticTraffic object at 0x7f204cbb9e10>, <m5.objects.GarnetSyntheticTraffic.GarnetSyntheticTraffic object at 0x7f204c735128>, <m5.objects.GarnetSyntheticTraffic.GarnetSyntheticTraffic object at 0x7f204c735400>, <m5.objects.GarnetSyntheticTraffic.GarnetSyntheticTraffic object at 0x7f204c7356d8>, <m5.objects.GarnetSyntheticTraffic.GarnetSyntheticTraffic object at 0x7f204c7359b0>, <m5.objects.GarnetSyntheticTraffic.GarnetSyntheticTraffic object at 0x7f204c735c88>, <m5.objects.GarnetSyntheticTraffic.GarnetSyntheticTraffic object at 0x7f204c735f60>, <m5.objects.GarnetSyntheticTraffic.GarnetSyntheticTraffic object at 0x7f204c73e278>, <m5.objects.GarnetSyntheticTraffic.GarnetSyntheticTraffic object at 0x7f204c73e550>, <m5.objects.GarnetSyntheticTraffic.GarnetSyntheticTraffic object at 0x7f204c73e828>, <m5.objects.GarnetSyntheticTraffic.GarnetSyntheticTraffic object at 0x7f204c73eb00>, <m5.objects.GarnetSyntheticTraffic.GarnetSyntheticTraffic object at 0x7f204cbb9860>, <m5.objects.GarnetSyntheticTraffic.GarnetSyntheticTraffic object at 0x7f204cba8eb8>, <m5.objects.GarnetSyntheticTraffic.GarnetSyntheticTraffic object at 0x7f204cbb46d8>, <m5.objects.GarnetSyntheticTraffic.GarnetSyntheticTraffic object at 0x7f204cbb4d30>, <m5.objects.GarnetSyntheticTraffic.GarnetSyntheticTraffic object at 0x7f204c73ed68>, <m5.objects.GarnetSyntheticTraffic.GarnetSyntheticTraffic object at 0x7f204c74a080>, <m5.objects.GarnetSyntheticTraffic.GarnetSyntheticTraffic object at 0x7f204c74a358>, <m5.objects.GarnetSyntheticTraffic.GarnetSyntheticTraffic object at 0x7f204c74a630>, <m5.objects.GarnetSyntheticTraffic.GarnetSyntheticTraffic object at 0x7f204c74a908>, <m5.objects.GarnetSyntheticTraffic.GarnetSyntheticTraffic object at 0x7f204c74abe0>, <m5.objects.GarnetSyntheticTraffic.GarnetSyntheticTraffic object at 0x7f204c74aeb8>, <m5.objects.GarnetSyntheticTraffic.GarnetSyntheticTraffic object at 0x7f204c7521d0>, <m5.objects.GarnetSyntheticTraffic.GarnetSyntheticTraffic object at 0x7f204c7524a8>, <m5.objects.GarnetSyntheticTraffic.GarnetSyntheticTraffic object at 0x7f204c752780>, <m5.objects.GarnetSyntheticTraffic.GarnetSyntheticTraffic object at 0x7f204c752a58>, <m5.objects.GarnetSyntheticTraffic.GarnetSyntheticTraffic object at 0x7f204c752d30>, <m5.objects.GarnetSyntheticTraffic.GarnetSyntheticTraffic object at 0x7f204c759048>, <m5.objects.GarnetSyntheticTraffic.GarnetSyntheticTraffic object at 0x7f204c759320>, <m5.objects.GarnetSyntheticTraffic.GarnetSyntheticTraffic object at 0x7f204c7595f8>, <m5.objects.GarnetSyntheticTraffic.GarnetSyntheticTraffic object at 0x7f204c7598d0>, <m5.objects.GarnetSyntheticTraffic.GarnetSyntheticTraffic object at 0x7f204c759ba8>, <m5.objects.GarnetSyntheticTraffic.GarnetSyntheticTraffic object at 0x7f204c759e80>, <m5.objects.GarnetSyntheticTraffic.GarnetSyntheticTraffic object at 0x7f204c762198>, <m5.objects.GarnetSyntheticTraffic.GarnetSyntheticTraffic object at 0x7f204c762470>, <m5.objects.GarnetSyntheticTraffic.GarnetSyntheticTraffic object at 0x7f204c762748>, <m5.objects.GarnetSyntheticTraffic.GarnetSyntheticTraffic object at 0x7f204c762a20>, <m5.objects.GarnetSyntheticTraffic.GarnetSyntheticTraffic object at 0x7f204c762cf8>, <m5.objects.GarnetSyntheticTraffic.GarnetSyntheticTraffic object at 0x7f204c762fd0>])
ingesting configs/topologies/nr_list_mclb/ft_x_mclb.nrl
ingesting configs/topologies/vn_maps_mclb/ft_x_mclb_hops_4vns.vn
ext_cdc_required = True
