
---------- Begin Simulation Statistics ----------
simSeconds                                   0.002147                       # Number of seconds simulated (Second)
simTicks                                   2147483750                       # Number of ticks simulated (Tick)
finalTick                                  2147483750                       # Number of ticks from beginning of simulation (restored from checkpoints and never reset) (Tick)
simFreq                                  1000000000000                       # The number of ticks per simulated second ((Tick/Second))
hostSeconds                                  14833.39                       # Real time elapsed on the host (Second)
hostTickRate                                   144774                       # The number of ticks simulated per host second (ticks/s) ((Tick/Second))
hostMemory                                    7958328                       # Number of bytes of host memory used (Byte)
system.clk_domain.clock                           250                       # Clock period in ticks (Tick)
system.cpu0.power_state.pwrStateResidencyTicks::UNDEFINED   2147483750                       # Cumulative time (in ticks) in various power states (Tick)
system.cpu1.power_state.pwrStateResidencyTicks::UNDEFINED   2147483750                       # Cumulative time (in ticks) in various power states (Tick)
system.cpu10.power_state.pwrStateResidencyTicks::UNDEFINED   2147483750                       # Cumulative time (in ticks) in various power states (Tick)
system.cpu11.power_state.pwrStateResidencyTicks::UNDEFINED   2147483750                       # Cumulative time (in ticks) in various power states (Tick)
system.cpu12.power_state.pwrStateResidencyTicks::UNDEFINED   2147483750                       # Cumulative time (in ticks) in various power states (Tick)
system.cpu13.power_state.pwrStateResidencyTicks::UNDEFINED   2147483750                       # Cumulative time (in ticks) in various power states (Tick)
system.cpu14.power_state.pwrStateResidencyTicks::UNDEFINED   2147483750                       # Cumulative time (in ticks) in various power states (Tick)
system.cpu15.power_state.pwrStateResidencyTicks::UNDEFINED   2147483750                       # Cumulative time (in ticks) in various power states (Tick)
system.cpu16.power_state.pwrStateResidencyTicks::UNDEFINED   2147483750                       # Cumulative time (in ticks) in various power states (Tick)
system.cpu17.power_state.pwrStateResidencyTicks::UNDEFINED   2147483750                       # Cumulative time (in ticks) in various power states (Tick)
system.cpu18.power_state.pwrStateResidencyTicks::UNDEFINED   2147483750                       # Cumulative time (in ticks) in various power states (Tick)
system.cpu19.power_state.pwrStateResidencyTicks::UNDEFINED   2147483750                       # Cumulative time (in ticks) in various power states (Tick)
system.cpu2.power_state.pwrStateResidencyTicks::UNDEFINED   2147483750                       # Cumulative time (in ticks) in various power states (Tick)
system.cpu20.power_state.pwrStateResidencyTicks::UNDEFINED   2147483750                       # Cumulative time (in ticks) in various power states (Tick)
system.cpu21.power_state.pwrStateResidencyTicks::UNDEFINED   2147483750                       # Cumulative time (in ticks) in various power states (Tick)
system.cpu22.power_state.pwrStateResidencyTicks::UNDEFINED   2147483750                       # Cumulative time (in ticks) in various power states (Tick)
system.cpu23.power_state.pwrStateResidencyTicks::UNDEFINED   2147483750                       # Cumulative time (in ticks) in various power states (Tick)
system.cpu24.power_state.pwrStateResidencyTicks::UNDEFINED   2147483750                       # Cumulative time (in ticks) in various power states (Tick)
system.cpu25.power_state.pwrStateResidencyTicks::UNDEFINED   2147483750                       # Cumulative time (in ticks) in various power states (Tick)
system.cpu26.power_state.pwrStateResidencyTicks::UNDEFINED   2147483750                       # Cumulative time (in ticks) in various power states (Tick)
system.cpu27.power_state.pwrStateResidencyTicks::UNDEFINED   2147483750                       # Cumulative time (in ticks) in various power states (Tick)
system.cpu28.power_state.pwrStateResidencyTicks::UNDEFINED   2147483750                       # Cumulative time (in ticks) in various power states (Tick)
system.cpu29.power_state.pwrStateResidencyTicks::UNDEFINED   2147483750                       # Cumulative time (in ticks) in various power states (Tick)
system.cpu3.power_state.pwrStateResidencyTicks::UNDEFINED   2147483750                       # Cumulative time (in ticks) in various power states (Tick)
system.cpu30.power_state.pwrStateResidencyTicks::UNDEFINED   2147483750                       # Cumulative time (in ticks) in various power states (Tick)
system.cpu31.power_state.pwrStateResidencyTicks::UNDEFINED   2147483750                       # Cumulative time (in ticks) in various power states (Tick)
system.cpu32.power_state.pwrStateResidencyTicks::UNDEFINED   2147483750                       # Cumulative time (in ticks) in various power states (Tick)
system.cpu33.power_state.pwrStateResidencyTicks::UNDEFINED   2147483750                       # Cumulative time (in ticks) in various power states (Tick)
system.cpu34.power_state.pwrStateResidencyTicks::UNDEFINED   2147483750                       # Cumulative time (in ticks) in various power states (Tick)
system.cpu35.power_state.pwrStateResidencyTicks::UNDEFINED   2147483750                       # Cumulative time (in ticks) in various power states (Tick)
system.cpu36.power_state.pwrStateResidencyTicks::UNDEFINED   2147483750                       # Cumulative time (in ticks) in various power states (Tick)
system.cpu37.power_state.pwrStateResidencyTicks::UNDEFINED   2147483750                       # Cumulative time (in ticks) in various power states (Tick)
system.cpu38.power_state.pwrStateResidencyTicks::UNDEFINED   2147483750                       # Cumulative time (in ticks) in various power states (Tick)
system.cpu39.power_state.pwrStateResidencyTicks::UNDEFINED   2147483750                       # Cumulative time (in ticks) in various power states (Tick)
system.cpu4.power_state.pwrStateResidencyTicks::UNDEFINED   2147483750                       # Cumulative time (in ticks) in various power states (Tick)
system.cpu40.power_state.pwrStateResidencyTicks::UNDEFINED   2147483750                       # Cumulative time (in ticks) in various power states (Tick)
system.cpu41.power_state.pwrStateResidencyTicks::UNDEFINED   2147483750                       # Cumulative time (in ticks) in various power states (Tick)
system.cpu42.power_state.pwrStateResidencyTicks::UNDEFINED   2147483750                       # Cumulative time (in ticks) in various power states (Tick)
system.cpu43.power_state.pwrStateResidencyTicks::UNDEFINED   2147483750                       # Cumulative time (in ticks) in various power states (Tick)
system.cpu44.power_state.pwrStateResidencyTicks::UNDEFINED   2147483750                       # Cumulative time (in ticks) in various power states (Tick)
system.cpu45.power_state.pwrStateResidencyTicks::UNDEFINED   2147483750                       # Cumulative time (in ticks) in various power states (Tick)
system.cpu46.power_state.pwrStateResidencyTicks::UNDEFINED   2147483750                       # Cumulative time (in ticks) in various power states (Tick)
system.cpu47.power_state.pwrStateResidencyTicks::UNDEFINED   2147483750                       # Cumulative time (in ticks) in various power states (Tick)
system.cpu48.power_state.pwrStateResidencyTicks::UNDEFINED   2147483750                       # Cumulative time (in ticks) in various power states (Tick)
system.cpu49.power_state.pwrStateResidencyTicks::UNDEFINED   2147483750                       # Cumulative time (in ticks) in various power states (Tick)
system.cpu5.power_state.pwrStateResidencyTicks::UNDEFINED   2147483750                       # Cumulative time (in ticks) in various power states (Tick)
system.cpu50.power_state.pwrStateResidencyTicks::UNDEFINED   2147483750                       # Cumulative time (in ticks) in various power states (Tick)
system.cpu51.power_state.pwrStateResidencyTicks::UNDEFINED   2147483750                       # Cumulative time (in ticks) in various power states (Tick)
system.cpu52.power_state.pwrStateResidencyTicks::UNDEFINED   2147483750                       # Cumulative time (in ticks) in various power states (Tick)
system.cpu53.power_state.pwrStateResidencyTicks::UNDEFINED   2147483750                       # Cumulative time (in ticks) in various power states (Tick)
system.cpu54.power_state.pwrStateResidencyTicks::UNDEFINED   2147483750                       # Cumulative time (in ticks) in various power states (Tick)
system.cpu55.power_state.pwrStateResidencyTicks::UNDEFINED   2147483750                       # Cumulative time (in ticks) in various power states (Tick)
system.cpu56.power_state.pwrStateResidencyTicks::UNDEFINED   2147483750                       # Cumulative time (in ticks) in various power states (Tick)
system.cpu57.power_state.pwrStateResidencyTicks::UNDEFINED   2147483750                       # Cumulative time (in ticks) in various power states (Tick)
system.cpu58.power_state.pwrStateResidencyTicks::UNDEFINED   2147483750                       # Cumulative time (in ticks) in various power states (Tick)
system.cpu59.power_state.pwrStateResidencyTicks::UNDEFINED   2147483750                       # Cumulative time (in ticks) in various power states (Tick)
system.cpu6.power_state.pwrStateResidencyTicks::UNDEFINED   2147483750                       # Cumulative time (in ticks) in various power states (Tick)
system.cpu60.power_state.pwrStateResidencyTicks::UNDEFINED   2147483750                       # Cumulative time (in ticks) in various power states (Tick)
system.cpu61.power_state.pwrStateResidencyTicks::UNDEFINED   2147483750                       # Cumulative time (in ticks) in various power states (Tick)
system.cpu62.power_state.pwrStateResidencyTicks::UNDEFINED   2147483750                       # Cumulative time (in ticks) in various power states (Tick)
system.cpu63.power_state.pwrStateResidencyTicks::UNDEFINED   2147483750                       # Cumulative time (in ticks) in various power states (Tick)
system.cpu7.power_state.pwrStateResidencyTicks::UNDEFINED   2147483750                       # Cumulative time (in ticks) in various power states (Tick)
system.cpu8.power_state.pwrStateResidencyTicks::UNDEFINED   2147483750                       # Cumulative time (in ticks) in various power states (Tick)
system.cpu9.power_state.pwrStateResidencyTicks::UNDEFINED   2147483750                       # Cumulative time (in ticks) in various power states (Tick)
system.mem_ctrls0.power_state.pwrStateResidencyTicks::UNDEFINED   2147483750                       # Cumulative time (in ticks) in various power states (Tick)
system.mem_ctrls1.power_state.pwrStateResidencyTicks::UNDEFINED   2147483750                       # Cumulative time (in ticks) in various power states (Tick)
system.mem_ctrls10.power_state.pwrStateResidencyTicks::UNDEFINED   2147483750                       # Cumulative time (in ticks) in various power states (Tick)
system.mem_ctrls11.power_state.pwrStateResidencyTicks::UNDEFINED   2147483750                       # Cumulative time (in ticks) in various power states (Tick)
system.mem_ctrls12.power_state.pwrStateResidencyTicks::UNDEFINED   2147483750                       # Cumulative time (in ticks) in various power states (Tick)
system.mem_ctrls13.power_state.pwrStateResidencyTicks::UNDEFINED   2147483750                       # Cumulative time (in ticks) in various power states (Tick)
system.mem_ctrls14.power_state.pwrStateResidencyTicks::UNDEFINED   2147483750                       # Cumulative time (in ticks) in various power states (Tick)
system.mem_ctrls15.power_state.pwrStateResidencyTicks::UNDEFINED   2147483750                       # Cumulative time (in ticks) in various power states (Tick)
system.mem_ctrls16.power_state.pwrStateResidencyTicks::UNDEFINED   2147483750                       # Cumulative time (in ticks) in various power states (Tick)
system.mem_ctrls17.power_state.pwrStateResidencyTicks::UNDEFINED   2147483750                       # Cumulative time (in ticks) in various power states (Tick)
system.mem_ctrls18.power_state.pwrStateResidencyTicks::UNDEFINED   2147483750                       # Cumulative time (in ticks) in various power states (Tick)
system.mem_ctrls19.power_state.pwrStateResidencyTicks::UNDEFINED   2147483750                       # Cumulative time (in ticks) in various power states (Tick)
system.mem_ctrls2.power_state.pwrStateResidencyTicks::UNDEFINED   2147483750                       # Cumulative time (in ticks) in various power states (Tick)
system.mem_ctrls20.power_state.pwrStateResidencyTicks::UNDEFINED   2147483750                       # Cumulative time (in ticks) in various power states (Tick)
system.mem_ctrls21.power_state.pwrStateResidencyTicks::UNDEFINED   2147483750                       # Cumulative time (in ticks) in various power states (Tick)
system.mem_ctrls22.power_state.pwrStateResidencyTicks::UNDEFINED   2147483750                       # Cumulative time (in ticks) in various power states (Tick)
system.mem_ctrls23.power_state.pwrStateResidencyTicks::UNDEFINED   2147483750                       # Cumulative time (in ticks) in various power states (Tick)
system.mem_ctrls24.power_state.pwrStateResidencyTicks::UNDEFINED   2147483750                       # Cumulative time (in ticks) in various power states (Tick)
system.mem_ctrls25.power_state.pwrStateResidencyTicks::UNDEFINED   2147483750                       # Cumulative time (in ticks) in various power states (Tick)
system.mem_ctrls26.power_state.pwrStateResidencyTicks::UNDEFINED   2147483750                       # Cumulative time (in ticks) in various power states (Tick)
system.mem_ctrls27.power_state.pwrStateResidencyTicks::UNDEFINED   2147483750                       # Cumulative time (in ticks) in various power states (Tick)
system.mem_ctrls28.power_state.pwrStateResidencyTicks::UNDEFINED   2147483750                       # Cumulative time (in ticks) in various power states (Tick)
system.mem_ctrls29.power_state.pwrStateResidencyTicks::UNDEFINED   2147483750                       # Cumulative time (in ticks) in various power states (Tick)
system.mem_ctrls3.power_state.pwrStateResidencyTicks::UNDEFINED   2147483750                       # Cumulative time (in ticks) in various power states (Tick)
system.mem_ctrls30.power_state.pwrStateResidencyTicks::UNDEFINED   2147483750                       # Cumulative time (in ticks) in various power states (Tick)
system.mem_ctrls31.power_state.pwrStateResidencyTicks::UNDEFINED   2147483750                       # Cumulative time (in ticks) in various power states (Tick)
system.mem_ctrls32.power_state.pwrStateResidencyTicks::UNDEFINED   2147483750                       # Cumulative time (in ticks) in various power states (Tick)
system.mem_ctrls33.power_state.pwrStateResidencyTicks::UNDEFINED   2147483750                       # Cumulative time (in ticks) in various power states (Tick)
system.mem_ctrls34.power_state.pwrStateResidencyTicks::UNDEFINED   2147483750                       # Cumulative time (in ticks) in various power states (Tick)
system.mem_ctrls35.power_state.pwrStateResidencyTicks::UNDEFINED   2147483750                       # Cumulative time (in ticks) in various power states (Tick)
system.mem_ctrls36.power_state.pwrStateResidencyTicks::UNDEFINED   2147483750                       # Cumulative time (in ticks) in various power states (Tick)
system.mem_ctrls37.power_state.pwrStateResidencyTicks::UNDEFINED   2147483750                       # Cumulative time (in ticks) in various power states (Tick)
system.mem_ctrls38.power_state.pwrStateResidencyTicks::UNDEFINED   2147483750                       # Cumulative time (in ticks) in various power states (Tick)
system.mem_ctrls39.power_state.pwrStateResidencyTicks::UNDEFINED   2147483750                       # Cumulative time (in ticks) in various power states (Tick)
system.mem_ctrls4.power_state.pwrStateResidencyTicks::UNDEFINED   2147483750                       # Cumulative time (in ticks) in various power states (Tick)
system.mem_ctrls40.power_state.pwrStateResidencyTicks::UNDEFINED   2147483750                       # Cumulative time (in ticks) in various power states (Tick)
system.mem_ctrls41.power_state.pwrStateResidencyTicks::UNDEFINED   2147483750                       # Cumulative time (in ticks) in various power states (Tick)
system.mem_ctrls42.power_state.pwrStateResidencyTicks::UNDEFINED   2147483750                       # Cumulative time (in ticks) in various power states (Tick)
system.mem_ctrls43.power_state.pwrStateResidencyTicks::UNDEFINED   2147483750                       # Cumulative time (in ticks) in various power states (Tick)
system.mem_ctrls44.power_state.pwrStateResidencyTicks::UNDEFINED   2147483750                       # Cumulative time (in ticks) in various power states (Tick)
system.mem_ctrls45.power_state.pwrStateResidencyTicks::UNDEFINED   2147483750                       # Cumulative time (in ticks) in various power states (Tick)
system.mem_ctrls46.power_state.pwrStateResidencyTicks::UNDEFINED   2147483750                       # Cumulative time (in ticks) in various power states (Tick)
system.mem_ctrls47.power_state.pwrStateResidencyTicks::UNDEFINED   2147483750                       # Cumulative time (in ticks) in various power states (Tick)
system.mem_ctrls48.power_state.pwrStateResidencyTicks::UNDEFINED   2147483750                       # Cumulative time (in ticks) in various power states (Tick)
system.mem_ctrls49.power_state.pwrStateResidencyTicks::UNDEFINED   2147483750                       # Cumulative time (in ticks) in various power states (Tick)
system.mem_ctrls5.power_state.pwrStateResidencyTicks::UNDEFINED   2147483750                       # Cumulative time (in ticks) in various power states (Tick)
system.mem_ctrls50.power_state.pwrStateResidencyTicks::UNDEFINED   2147483750                       # Cumulative time (in ticks) in various power states (Tick)
system.mem_ctrls51.power_state.pwrStateResidencyTicks::UNDEFINED   2147483750                       # Cumulative time (in ticks) in various power states (Tick)
system.mem_ctrls52.power_state.pwrStateResidencyTicks::UNDEFINED   2147483750                       # Cumulative time (in ticks) in various power states (Tick)
system.mem_ctrls53.power_state.pwrStateResidencyTicks::UNDEFINED   2147483750                       # Cumulative time (in ticks) in various power states (Tick)
system.mem_ctrls54.power_state.pwrStateResidencyTicks::UNDEFINED   2147483750                       # Cumulative time (in ticks) in various power states (Tick)
system.mem_ctrls55.power_state.pwrStateResidencyTicks::UNDEFINED   2147483750                       # Cumulative time (in ticks) in various power states (Tick)
system.mem_ctrls56.power_state.pwrStateResidencyTicks::UNDEFINED   2147483750                       # Cumulative time (in ticks) in various power states (Tick)
system.mem_ctrls57.power_state.pwrStateResidencyTicks::UNDEFINED   2147483750                       # Cumulative time (in ticks) in various power states (Tick)
system.mem_ctrls58.power_state.pwrStateResidencyTicks::UNDEFINED   2147483750                       # Cumulative time (in ticks) in various power states (Tick)
system.mem_ctrls59.power_state.pwrStateResidencyTicks::UNDEFINED   2147483750                       # Cumulative time (in ticks) in various power states (Tick)
system.mem_ctrls6.power_state.pwrStateResidencyTicks::UNDEFINED   2147483750                       # Cumulative time (in ticks) in various power states (Tick)
system.mem_ctrls60.power_state.pwrStateResidencyTicks::UNDEFINED   2147483750                       # Cumulative time (in ticks) in various power states (Tick)
system.mem_ctrls61.power_state.pwrStateResidencyTicks::UNDEFINED   2147483750                       # Cumulative time (in ticks) in various power states (Tick)
system.mem_ctrls62.power_state.pwrStateResidencyTicks::UNDEFINED   2147483750                       # Cumulative time (in ticks) in various power states (Tick)
system.mem_ctrls63.power_state.pwrStateResidencyTicks::UNDEFINED   2147483750                       # Cumulative time (in ticks) in various power states (Tick)
system.mem_ctrls7.power_state.pwrStateResidencyTicks::UNDEFINED   2147483750                       # Cumulative time (in ticks) in various power states (Tick)
system.mem_ctrls8.power_state.pwrStateResidencyTicks::UNDEFINED   2147483750                       # Cumulative time (in ticks) in various power states (Tick)
system.mem_ctrls9.power_state.pwrStateResidencyTicks::UNDEFINED   2147483750                       # Cumulative time (in ticks) in various power states (Tick)
system.ruby.m_outstandReqHistSeqr::bucket_size            1                       (Unspecified)
system.ruby.m_outstandReqHistSeqr::max_bucket            9                       (Unspecified)
system.ruby.m_outstandReqHistSeqr::samples     49420769                       (Unspecified)
system.ruby.m_outstandReqHistSeqr::mean             1                       (Unspecified)
system.ruby.m_outstandReqHistSeqr::gmean            1                       (Unspecified)
system.ruby.m_outstandReqHistSeqr        |           0      0.00%      0.00% |    49420769    100.00%    100.00% |           0      0.00%    100.00% |           0      0.00%    100.00% |           0      0.00%    100.00% |           0      0.00%    100.00% |           0      0.00%    100.00% |           0      0.00%    100.00% |           0      0.00%    100.00% |           0      0.00%    100.00% (Unspecified)
system.ruby.m_outstandReqHistSeqr::total     49420769                       (Unspecified)
system.ruby.m_latencyHistSeqr::bucket_size            1                       (Unspecified)
system.ruby.m_latencyHistSeqr::max_bucket            9                       (Unspecified)
system.ruby.m_latencyHistSeqr::samples       49420762                       (Unspecified)
system.ruby.m_latencyHistSeqr::mean                 1                       (Unspecified)
system.ruby.m_latencyHistSeqr::gmean                1                       (Unspecified)
system.ruby.m_latencyHistSeqr            |           0      0.00%      0.00% |    49420762    100.00%    100.00% |           0      0.00%    100.00% |           0      0.00%    100.00% |           0      0.00%    100.00% |           0      0.00%    100.00% |           0      0.00%    100.00% |           0      0.00%    100.00% |           0      0.00%    100.00% |           0      0.00%    100.00% (Unspecified)
system.ruby.m_latencyHistSeqr::total         49420762                       (Unspecified)
system.ruby.m_hitLatencyHistSeqr::bucket_size            1                       (Unspecified)
system.ruby.m_hitLatencyHistSeqr::max_bucket            9                       (Unspecified)
system.ruby.m_hitLatencyHistSeqr::samples     49420762                       (Unspecified)
system.ruby.m_hitLatencyHistSeqr::mean              1                       (Unspecified)
system.ruby.m_hitLatencyHistSeqr::gmean             1                       (Unspecified)
system.ruby.m_hitLatencyHistSeqr         |           0      0.00%      0.00% |    49420762    100.00%    100.00% |           0      0.00%    100.00% |           0      0.00%    100.00% |           0      0.00%    100.00% |           0      0.00%    100.00% |           0      0.00%    100.00% |           0      0.00%    100.00% |           0      0.00%    100.00% |           0      0.00%    100.00% (Unspecified)
system.ruby.m_hitLatencyHistSeqr::total      49420762                       (Unspecified)
system.ruby.Directory_Controller.Receive_Request |      256779      1.56%      1.56% |      257413      1.56%      3.12% |      257572      1.56%      4.69% |      257953      1.57%      6.25% |      257513      1.56%      7.81% |      256773      1.56%      9.37% |      256579      1.56%     10.93% |      257598      1.56%     12.49% |      257713      1.56%     14.06% |      257862      1.57%     15.62% |      257378      1.56%     17.19% |      258071      1.57%     18.75% |      257275      1.56%     20.32% |      256980      1.56%     21.88% |      256123      1.55%     23.43% |      257757      1.56%     25.00% |      256915      1.56%     26.55% |      258023      1.57%     28.12% |      258039      1.57%     29.69% |      257194      1.56%     31.25% |      257644      1.56%     32.81% |      257242      1.56%     34.37% |      256413      1.56%     35.93% |      257229      1.56%     37.49% |      257186      1.56%     39.05% |      256667      1.56%     40.61% |      257920      1.57%     42.18% |      257042      1.56%     43.74% |      258047      1.57%     45.31% |      256320      1.56%     46.86% |      258074      1.57%     48.43% |      257455      1.56%     49.99% |      257095      1.56%     51.55% |      257715      1.56%     53.12% |      257647      1.56%     54.68% |      257800      1.57%     56.25% |      257653      1.56%     57.81% |      257365      1.56%     59.37% |      257147      1.56%     60.93% |      257546      1.56%     62.50% |      257099      1.56%     64.06% |      257063      1.56%     65.62% |      258079      1.57%     67.18% |      257428      1.56%     68.75% |      257964      1.57%     70.31% |      257930      1.57%     71.88% |      256628      1.56%     73.44% |      257229      1.56%     75.00% |      256362      1.56%     76.56% |      257913      1.57%     78.12% |      257586      1.56%     79.68% |      257597      1.56%     81.25% |      257362      1.56%     82.81% |      257150      1.56%     84.37% |      257003      1.56%     85.93% |      257181      1.56%     87.49% |      257382      1.56%     89.06% |      256046      1.55%     90.61% |      257514      1.56%     92.17% |      257756      1.56%     93.74% |      258100      1.57%     95.31% |      258158      1.57%     96.87% |      257125      1.56%     98.43% |      258066      1.57%    100.00% (Unspecified)
system.ruby.Directory_Controller.Receive_Request::total     16472438                       (Unspecified)
system.ruby.Directory_Controller.Receive_Forward |      257744      1.56%      1.56% |      257336      1.56%      3.13% |      257362      1.56%      4.69% |      257498      1.56%      6.25% |      258190      1.57%      7.82% |      256531      1.56%      9.38% |      257170      1.56%     10.94% |      256493      1.56%     12.49% |      258488      1.57%     14.06% |      257334      1.56%     15.63% |      258345      1.57%     17.19% |      257420      1.56%     18.76% |      256248      1.56%     20.31% |      257575      1.56%     21.88% |      257411      1.56%     23.44% |      257872      1.57%     25.00% |      258266      1.57%     26.57% |      258201      1.57%     28.14% |      256604      1.56%     29.70% |      257726      1.56%     31.26% |      257048      1.56%     32.82% |      257351      1.56%     34.38% |      256341      1.56%     35.94% |      257730      1.56%     37.50% |      257562      1.56%     39.07% |      257330      1.56%     40.63% |      257902      1.57%     42.20% |      256854      1.56%     43.75% |      256421      1.56%     45.31% |      257254      1.56%     46.87% |      257933      1.57%     48.44% |      257013      1.56%     50.00% |      257371      1.56%     51.56% |      256932      1.56%     53.12% |      257508      1.56%     54.68% |      257140      1.56%     56.24% |      257073      1.56%     57.81% |      258182      1.57%     59.37% |      258085      1.57%     60.94% |      257697      1.56%     62.50% |      257847      1.57%     64.07% |      257063      1.56%     65.63% |      257780      1.56%     67.19% |      257094      1.56%     68.75% |      257144      1.56%     70.32% |      258434      1.57%     71.88% |      257878      1.57%     73.45% |      257411      1.56%     75.01% |      256877      1.56%     76.57% |      257289      1.56%     78.13% |      256737      1.56%     79.69% |      257948      1.57%     81.26% |      256867      1.56%     82.82% |      257820      1.57%     84.38% |      256961      1.56%     85.94% |      257201      1.56%     87.50% |      257217      1.56%     89.06% |      256590      1.56%     90.62% |      257437      1.56%     92.18% |      256877      1.56%     93.74% |      257474      1.56%     95.31% |      258224      1.57%     96.87% |      257776      1.56%     98.44% |      257115      1.56%    100.00% (Unspecified)
system.ruby.Directory_Controller.Receive_Forward::total     16473602                       (Unspecified)
system.ruby.Directory_Controller.Receive_Response |      193278      1.56%      1.56% |      194442      1.57%      3.12% |      193766      1.56%      4.68% |      194498      1.57%      6.25% |      193611      1.56%      7.80% |      194389      1.56%      9.37% |      193702      1.56%     10.93% |      193979      1.56%     12.49% |      193904      1.56%     14.05% |      193863      1.56%     15.61% |      194206      1.56%     17.17% |      193726      1.56%     18.73% |      193905      1.56%     20.29% |      194573      1.57%     21.86% |      193433      1.56%     23.42% |      194472      1.57%     24.98% |      194399      1.56%     26.55% |      194047      1.56%     28.11% |      195076      1.57%     29.68% |      193186      1.56%     31.24% |      194736      1.57%     32.80% |      194041      1.56%     34.36% |      194028      1.56%     35.93% |      194444      1.57%     37.49% |      194056      1.56%     39.05% |      194388      1.56%     40.62% |      194092      1.56%     42.18% |      194228      1.56%     43.74% |      193643      1.56%     45.30% |      194133      1.56%     46.87% |      193537      1.56%     48.42% |      193491      1.56%     49.98% |      194485      1.57%     51.55% |      194263      1.56%     53.11% |      194352      1.56%     54.67% |      194234      1.56%     56.24% |      193674      1.56%     57.80% |      194066      1.56%     59.36% |      194690      1.57%     60.93% |      193836      1.56%     62.49% |      195061      1.57%     64.06% |      194222      1.56%     65.62% |      195046      1.57%     67.19% |      194262      1.56%     68.75% |      194179      1.56%     70.32% |      194250      1.56%     71.88% |      194738      1.57%     73.45% |      193835      1.56%     75.01% |      194026      1.56%     76.57% |      194500      1.57%     78.14% |      193693      1.56%     79.70% |      194170      1.56%     81.26% |      193973      1.56%     82.82% |      193838      1.56%     84.38% |      194282      1.56%     85.94% |      194849      1.57%     87.51% |      193885      1.56%     89.07% |      194501      1.57%     90.64% |      194514      1.57%     92.20% |      193510      1.56%     93.76% |      193987      1.56%     95.32% |      193249      1.56%     96.88% |      193558      1.56%     98.44% |      194211      1.56%    100.00% (Unspecified)
system.ruby.Directory_Controller.Receive_Response::total     12423211                       (Unspecified)
system.ruby.Directory_Controller.I.Receive_Request |      256779      1.56%      1.56% |      257413      1.56%      3.12% |      257572      1.56%      4.69% |      257953      1.57%      6.25% |      257513      1.56%      7.81% |      256773      1.56%      9.37% |      256579      1.56%     10.93% |      257598      1.56%     12.49% |      257713      1.56%     14.06% |      257862      1.57%     15.62% |      257378      1.56%     17.19% |      258071      1.57%     18.75% |      257275      1.56%     20.32% |      256980      1.56%     21.88% |      256123      1.55%     23.43% |      257757      1.56%     25.00% |      256915      1.56%     26.55% |      258023      1.57%     28.12% |      258039      1.57%     29.69% |      257194      1.56%     31.25% |      257644      1.56%     32.81% |      257242      1.56%     34.37% |      256413      1.56%     35.93% |      257229      1.56%     37.49% |      257186      1.56%     39.05% |      256667      1.56%     40.61% |      257920      1.57%     42.18% |      257042      1.56%     43.74% |      258047      1.57%     45.31% |      256320      1.56%     46.86% |      258074      1.57%     48.43% |      257455      1.56%     49.99% |      257095      1.56%     51.55% |      257715      1.56%     53.12% |      257647      1.56%     54.68% |      257800      1.57%     56.25% |      257653      1.56%     57.81% |      257365      1.56%     59.37% |      257147      1.56%     60.93% |      257546      1.56%     62.50% |      257099      1.56%     64.06% |      257063      1.56%     65.62% |      258079      1.57%     67.18% |      257428      1.56%     68.75% |      257964      1.57%     70.31% |      257930      1.57%     71.88% |      256628      1.56%     73.44% |      257229      1.56%     75.00% |      256362      1.56%     76.56% |      257913      1.57%     78.12% |      257586      1.56%     79.68% |      257597      1.56%     81.25% |      257362      1.56%     82.81% |      257150      1.56%     84.37% |      257003      1.56%     85.93% |      257181      1.56%     87.49% |      257382      1.56%     89.06% |      256046      1.55%     90.61% |      257514      1.56%     92.17% |      257756      1.56%     93.74% |      258100      1.57%     95.31% |      258158      1.57%     96.87% |      257125      1.56%     98.43% |      258066      1.57%    100.00% (Unspecified)
system.ruby.Directory_Controller.I.Receive_Request::total     16472438                       (Unspecified)
system.ruby.Directory_Controller.I.Receive_Forward |      257744      1.56%      1.56% |      257336      1.56%      3.13% |      257362      1.56%      4.69% |      257498      1.56%      6.25% |      258190      1.57%      7.82% |      256531      1.56%      9.38% |      257170      1.56%     10.94% |      256493      1.56%     12.49% |      258488      1.57%     14.06% |      257334      1.56%     15.63% |      258345      1.57%     17.19% |      257420      1.56%     18.76% |      256248      1.56%     20.31% |      257575      1.56%     21.88% |      257411      1.56%     23.44% |      257872      1.57%     25.00% |      258266      1.57%     26.57% |      258201      1.57%     28.14% |      256604      1.56%     29.70% |      257726      1.56%     31.26% |      257048      1.56%     32.82% |      257351      1.56%     34.38% |      256341      1.56%     35.94% |      257730      1.56%     37.50% |      257562      1.56%     39.07% |      257330      1.56%     40.63% |      257902      1.57%     42.20% |      256854      1.56%     43.75% |      256421      1.56%     45.31% |      257254      1.56%     46.87% |      257933      1.57%     48.44% |      257013      1.56%     50.00% |      257371      1.56%     51.56% |      256932      1.56%     53.12% |      257508      1.56%     54.68% |      257140      1.56%     56.24% |      257073      1.56%     57.81% |      258182      1.57%     59.37% |      258085      1.57%     60.94% |      257697      1.56%     62.50% |      257847      1.57%     64.07% |      257063      1.56%     65.63% |      257780      1.56%     67.19% |      257094      1.56%     68.75% |      257144      1.56%     70.32% |      258434      1.57%     71.88% |      257878      1.57%     73.45% |      257411      1.56%     75.01% |      256877      1.56%     76.57% |      257289      1.56%     78.13% |      256737      1.56%     79.69% |      257948      1.57%     81.26% |      256867      1.56%     82.82% |      257820      1.57%     84.38% |      256961      1.56%     85.94% |      257201      1.56%     87.50% |      257217      1.56%     89.06% |      256590      1.56%     90.62% |      257437      1.56%     92.18% |      256877      1.56%     93.74% |      257474      1.56%     95.31% |      258224      1.57%     96.87% |      257776      1.56%     98.44% |      257115      1.56%    100.00% (Unspecified)
system.ruby.Directory_Controller.I.Receive_Forward::total     16473602                       (Unspecified)
system.ruby.Directory_Controller.I.Receive_Response |      193278      1.56%      1.56% |      194442      1.57%      3.12% |      193766      1.56%      4.68% |      194498      1.57%      6.25% |      193611      1.56%      7.80% |      194389      1.56%      9.37% |      193702      1.56%     10.93% |      193979      1.56%     12.49% |      193904      1.56%     14.05% |      193863      1.56%     15.61% |      194206      1.56%     17.17% |      193726      1.56%     18.73% |      193905      1.56%     20.29% |      194573      1.57%     21.86% |      193433      1.56%     23.42% |      194472      1.57%     24.98% |      194399      1.56%     26.55% |      194047      1.56%     28.11% |      195076      1.57%     29.68% |      193186      1.56%     31.24% |      194736      1.57%     32.80% |      194041      1.56%     34.36% |      194028      1.56%     35.93% |      194444      1.57%     37.49% |      194056      1.56%     39.05% |      194388      1.56%     40.62% |      194092      1.56%     42.18% |      194228      1.56%     43.74% |      193643      1.56%     45.30% |      194133      1.56%     46.87% |      193537      1.56%     48.42% |      193491      1.56%     49.98% |      194485      1.57%     51.55% |      194263      1.56%     53.11% |      194352      1.56%     54.67% |      194234      1.56%     56.24% |      193674      1.56%     57.80% |      194066      1.56%     59.36% |      194690      1.57%     60.93% |      193836      1.56%     62.49% |      195061      1.57%     64.06% |      194222      1.56%     65.62% |      195046      1.57%     67.19% |      194262      1.56%     68.75% |      194179      1.56%     70.32% |      194250      1.56%     71.88% |      194738      1.57%     73.45% |      193835      1.56%     75.01% |      194026      1.56%     76.57% |      194500      1.57%     78.14% |      193693      1.56%     79.70% |      194170      1.56%     81.26% |      193973      1.56%     82.82% |      193838      1.56%     84.38% |      194282      1.56%     85.94% |      194849      1.57%     87.51% |      193885      1.56%     89.07% |      194501      1.57%     90.64% |      194514      1.57%     92.20% |      193510      1.56%     93.76% |      193987      1.56%     95.32% |      193249      1.56%     96.88% |      193558      1.56%     98.44% |      194211      1.56%    100.00% (Unspecified)
system.ruby.Directory_Controller.I.Receive_Response::total     12423211                       (Unspecified)
system.ruby.L1Cache_Controller.Request   |      257617      1.56%      1.56% |      257797      1.57%      3.13% |      257474      1.56%      4.69% |      258291      1.57%      6.26% |      258018      1.57%      7.83% |      257042      1.56%      9.39% |      258077      1.57%     10.95% |      257199      1.56%     12.51% |      257236      1.56%     14.08% |      257721      1.56%     15.64% |      256952      1.56%     17.20% |      257430      1.56%     18.76% |      257865      1.57%     20.33% |      256867      1.56%     21.89% |      257528      1.56%     23.45% |      257748      1.56%     25.02% |      257085      1.56%     26.58% |      257638      1.56%     28.14% |      257370      1.56%     29.70% |      258216      1.57%     31.27% |      256807      1.56%     32.83% |      256948      1.56%     34.39% |      256915      1.56%     35.95% |      257541      1.56%     37.51% |      257685      1.56%     39.08% |      257779      1.56%     40.64% |      257926      1.57%     42.21% |      257384      1.56%     43.77% |      256846      1.56%     45.33% |      257750      1.56%     46.89% |      257107      1.56%     48.46% |      257985      1.57%     50.02% |      258039      1.57%     51.59% |      257301      1.56%     53.15% |      257351      1.56%     54.71% |      257323      1.56%     56.27% |      257227      1.56%     57.84% |      257170      1.56%     59.40% |      256885      1.56%     60.96% |      258097      1.57%     62.52% |      257288      1.56%     64.09% |      257254      1.56%     65.65% |      257450      1.56%     67.21% |      256984      1.56%     68.77% |      257331      1.56%     70.33% |      257722      1.56%     71.90% |      257870      1.57%     73.46% |      257079      1.56%     75.02% |      257699      1.56%     76.59% |      256782      1.56%     78.15% |      255929      1.55%     79.70% |      256860      1.56%     81.26% |      257385      1.56%     82.82% |      256702      1.56%     84.38% |      257830      1.57%     85.95% |      257104      1.56%     87.51% |      257703      1.56%     89.07% |      257920      1.57%     90.64% |      257597      1.56%     92.20% |      257673      1.56%     93.76% |      257130      1.56%     95.33% |      256824      1.56%     96.88% |      257010      1.56%     98.45% |      256138      1.55%    100.00% (Unspecified)
system.ruby.L1Cache_Controller.Request::total     16472501                       (Unspecified)
system.ruby.L1Cache_Controller.Forward   |      257163      1.56%      1.56% |      258110      1.57%      3.13% |      257585      1.56%      4.69% |      258164      1.57%      6.26% |      257956      1.57%      7.82% |      257584      1.56%      9.39% |      257310      1.56%     10.95% |      257168      1.56%     12.51% |      257347      1.56%     14.07% |      257487      1.56%     15.64% |      257097      1.56%     17.20% |      257321      1.56%     18.76% |      257744      1.56%     20.32% |      256619      1.56%     21.88% |      256829      1.56%     23.44% |      257156      1.56%     25.00% |      258313      1.57%     26.57% |      257967      1.57%     28.14% |      258214      1.57%     29.70% |      256974      1.56%     31.26% |      257032      1.56%     32.82% |      256886      1.56%     34.38% |      257239      1.56%     35.94% |      257515      1.56%     37.51% |      257189      1.56%     39.07% |      257521      1.56%     40.63% |      257853      1.57%     42.20% |      256749      1.56%     43.76% |      257073      1.56%     45.32% |      257709      1.56%     46.88% |      258086      1.57%     48.45% |      256818      1.56%     50.01% |      257097      1.56%     51.57% |      257875      1.57%     53.13% |      257669      1.56%     54.70% |      256906      1.56%     56.26% |      257042      1.56%     57.82% |      258187      1.57%     59.38% |      257674      1.56%     60.95% |      257337      1.56%     62.51% |      257259      1.56%     64.07% |      256968      1.56%     65.63% |      256726      1.56%     67.19% |      257255      1.56%     68.75% |      257230      1.56%     70.31% |      257735      1.56%     71.88% |      257391      1.56%     73.44% |      256899      1.56%     75.00% |      257643      1.56%     76.56% |      256929      1.56%     78.12% |      258230      1.57%     79.69% |      257386      1.56%     81.25% |      257164      1.56%     82.81% |      257456      1.56%     84.38% |      257195      1.56%     85.94% |      257803      1.56%     87.50% |      257197      1.56%     89.06% |      257046      1.56%     90.62% |      257549      1.56%     92.19% |      257436      1.56%     93.75% |      256639      1.56%     95.31% |      258123      1.57%     96.87% |      256830      1.56%     98.43% |      258011      1.57%    100.00% (Unspecified)
system.ruby.L1Cache_Controller.Forward::total     16473665                       (Unspecified)
system.ruby.L1Cache_Controller.Response  |      257670      1.56%      1.56% |      257771      1.56%      3.13% |      257157      1.56%      4.69% |      257484      1.56%      6.25% |      257224      1.56%      7.81% |      256811      1.56%      9.37% |      256889      1.56%     10.93% |      257667      1.56%     12.50% |      257933      1.57%     14.06% |      256902      1.56%     15.62% |      256877      1.56%     17.18% |      256947      1.56%     18.74% |      257407      1.56%     20.30% |      257047      1.56%     21.86% |      257787      1.56%     23.43% |      257053      1.56%     24.99% |      257819      1.56%     26.55% |      258031      1.57%     28.12% |      257294      1.56%     29.68% |      257341      1.56%     31.24% |      257531      1.56%     32.81% |      257252      1.56%     34.37% |      257671      1.56%     35.93% |      256733      1.56%     37.49% |      257370      1.56%     39.05% |      257784      1.56%     40.62% |      257544      1.56%     42.18% |      257339      1.56%     43.74% |      256884      1.56%     45.30% |      257025      1.56%     46.86% |      257593      1.56%     48.43% |      256664      1.56%     49.98% |      257005      1.56%     51.54% |      257600      1.56%     53.11% |      257334      1.56%     54.67% |      257955      1.57%     56.23% |      257805      1.56%     57.80% |      257146      1.56%     59.36% |      257069      1.56%     60.92% |      256928      1.56%     62.48% |      258075      1.57%     64.05% |      257379      1.56%     65.61% |      257617      1.56%     67.17% |      258144      1.57%     68.74% |      257152      1.56%     70.30% |      257346      1.56%     71.86% |      257658      1.56%     73.43% |      257084      1.56%     74.99% |      256993      1.56%     76.55% |      258077      1.57%     78.11% |      257374      1.56%     79.68% |      257131      1.56%     81.24% |      257539      1.56%     82.80% |      257748      1.56%     84.36% |      256714      1.56%     85.92% |      257027      1.56%     87.48% |      257536      1.56%     89.05% |      257695      1.56%     90.61% |      257979      1.57%     92.18% |      258388      1.57%     93.74% |      257862      1.57%     95.31% |      257436      1.56%     96.87% |      257980      1.57%     98.44% |      257319      1.56%    100.00% (Unspecified)
system.ruby.L1Cache_Controller.Response::total     16474596                       (Unspecified)
system.ruby.L1Cache_Controller.I.Request |      257617      1.56%      1.56% |      257797      1.57%      3.13% |      257474      1.56%      4.69% |      258291      1.57%      6.26% |      258018      1.57%      7.83% |      257042      1.56%      9.39% |      258077      1.57%     10.95% |      257199      1.56%     12.51% |      257236      1.56%     14.08% |      257721      1.56%     15.64% |      256952      1.56%     17.20% |      257430      1.56%     18.76% |      257865      1.57%     20.33% |      256867      1.56%     21.89% |      257528      1.56%     23.45% |      257748      1.56%     25.02% |      257085      1.56%     26.58% |      257638      1.56%     28.14% |      257370      1.56%     29.70% |      258216      1.57%     31.27% |      256807      1.56%     32.83% |      256948      1.56%     34.39% |      256915      1.56%     35.95% |      257541      1.56%     37.51% |      257685      1.56%     39.08% |      257779      1.56%     40.64% |      257926      1.57%     42.21% |      257384      1.56%     43.77% |      256846      1.56%     45.33% |      257750      1.56%     46.89% |      257107      1.56%     48.46% |      257985      1.57%     50.02% |      258039      1.57%     51.59% |      257301      1.56%     53.15% |      257351      1.56%     54.71% |      257323      1.56%     56.27% |      257227      1.56%     57.84% |      257170      1.56%     59.40% |      256885      1.56%     60.96% |      258097      1.57%     62.52% |      257288      1.56%     64.09% |      257254      1.56%     65.65% |      257450      1.56%     67.21% |      256984      1.56%     68.77% |      257331      1.56%     70.33% |      257722      1.56%     71.90% |      257870      1.57%     73.46% |      257079      1.56%     75.02% |      257699      1.56%     76.59% |      256782      1.56%     78.15% |      255929      1.55%     79.70% |      256860      1.56%     81.26% |      257385      1.56%     82.82% |      256702      1.56%     84.38% |      257830      1.57%     85.95% |      257104      1.56%     87.51% |      257703      1.56%     89.07% |      257920      1.57%     90.64% |      257597      1.56%     92.20% |      257673      1.56%     93.76% |      257130      1.56%     95.33% |      256824      1.56%     96.88% |      257010      1.56%     98.45% |      256138      1.55%    100.00% (Unspecified)
system.ruby.L1Cache_Controller.I.Request::total     16472501                       (Unspecified)
system.ruby.L1Cache_Controller.I.Forward |      257163      1.56%      1.56% |      258110      1.57%      3.13% |      257585      1.56%      4.69% |      258164      1.57%      6.26% |      257956      1.57%      7.82% |      257584      1.56%      9.39% |      257310      1.56%     10.95% |      257168      1.56%     12.51% |      257347      1.56%     14.07% |      257487      1.56%     15.64% |      257097      1.56%     17.20% |      257321      1.56%     18.76% |      257744      1.56%     20.32% |      256619      1.56%     21.88% |      256829      1.56%     23.44% |      257156      1.56%     25.00% |      258313      1.57%     26.57% |      257967      1.57%     28.14% |      258214      1.57%     29.70% |      256974      1.56%     31.26% |      257032      1.56%     32.82% |      256886      1.56%     34.38% |      257239      1.56%     35.94% |      257515      1.56%     37.51% |      257189      1.56%     39.07% |      257521      1.56%     40.63% |      257853      1.57%     42.20% |      256749      1.56%     43.76% |      257073      1.56%     45.32% |      257709      1.56%     46.88% |      258086      1.57%     48.45% |      256818      1.56%     50.01% |      257097      1.56%     51.57% |      257875      1.57%     53.13% |      257669      1.56%     54.70% |      256906      1.56%     56.26% |      257042      1.56%     57.82% |      258187      1.57%     59.38% |      257674      1.56%     60.95% |      257337      1.56%     62.51% |      257259      1.56%     64.07% |      256968      1.56%     65.63% |      256726      1.56%     67.19% |      257255      1.56%     68.75% |      257230      1.56%     70.31% |      257735      1.56%     71.88% |      257391      1.56%     73.44% |      256899      1.56%     75.00% |      257643      1.56%     76.56% |      256929      1.56%     78.12% |      258230      1.57%     79.69% |      257386      1.56%     81.25% |      257164      1.56%     82.81% |      257456      1.56%     84.38% |      257195      1.56%     85.94% |      257803      1.56%     87.50% |      257197      1.56%     89.06% |      257046      1.56%     90.62% |      257549      1.56%     92.19% |      257436      1.56%     93.75% |      256639      1.56%     95.31% |      258123      1.57%     96.87% |      256830      1.56%     98.43% |      258011      1.57%    100.00% (Unspecified)
system.ruby.L1Cache_Controller.I.Forward::total     16473665                       (Unspecified)
system.ruby.L1Cache_Controller.I.Response |      257670      1.56%      1.56% |      257771      1.56%      3.13% |      257157      1.56%      4.69% |      257484      1.56%      6.25% |      257224      1.56%      7.81% |      256811      1.56%      9.37% |      256889      1.56%     10.93% |      257667      1.56%     12.50% |      257933      1.57%     14.06% |      256902      1.56%     15.62% |      256877      1.56%     17.18% |      256947      1.56%     18.74% |      257407      1.56%     20.30% |      257047      1.56%     21.86% |      257787      1.56%     23.43% |      257053      1.56%     24.99% |      257819      1.56%     26.55% |      258031      1.57%     28.12% |      257294      1.56%     29.68% |      257341      1.56%     31.24% |      257531      1.56%     32.81% |      257252      1.56%     34.37% |      257671      1.56%     35.93% |      256733      1.56%     37.49% |      257370      1.56%     39.05% |      257784      1.56%     40.62% |      257544      1.56%     42.18% |      257339      1.56%     43.74% |      256884      1.56%     45.30% |      257025      1.56%     46.86% |      257593      1.56%     48.43% |      256664      1.56%     49.98% |      257005      1.56%     51.54% |      257600      1.56%     53.11% |      257334      1.56%     54.67% |      257955      1.57%     56.23% |      257805      1.56%     57.80% |      257146      1.56%     59.36% |      257069      1.56%     60.92% |      256928      1.56%     62.48% |      258075      1.57%     64.05% |      257379      1.56%     65.61% |      257617      1.56%     67.17% |      258144      1.57%     68.74% |      257152      1.56%     70.30% |      257346      1.56%     71.86% |      257658      1.56%     73.43% |      257084      1.56%     74.99% |      256993      1.56%     76.55% |      258077      1.57%     78.11% |      257374      1.56%     79.68% |      257131      1.56%     81.24% |      257539      1.56%     82.80% |      257748      1.56%     84.36% |      256714      1.56%     85.92% |      257027      1.56%     87.48% |      257536      1.56%     89.05% |      257695      1.56%     90.61% |      257979      1.57%     92.18% |      258388      1.57%     93.74% |      257862      1.57%     95.31% |      257436      1.56%     96.87% |      257980      1.57%     98.44% |      257319      1.56%    100.00% (Unspecified)
system.ruby.L1Cache_Controller.I.Response::total     16474596                       (Unspecified)
system.ruby.RequestType.LD.latency_hist_seqr::bucket_size            1                       (Unspecified)
system.ruby.RequestType.LD.latency_hist_seqr::max_bucket            9                       (Unspecified)
system.ruby.RequestType.LD.latency_hist_seqr::samples     16472501                       (Unspecified)
system.ruby.RequestType.LD.latency_hist_seqr::mean            1                       (Unspecified)
system.ruby.RequestType.LD.latency_hist_seqr::gmean            1                       (Unspecified)
system.ruby.RequestType.LD.latency_hist_seqr |           0      0.00%      0.00% |    16472501    100.00%    100.00% |           0      0.00%    100.00% |           0      0.00%    100.00% |           0      0.00%    100.00% |           0      0.00%    100.00% |           0      0.00%    100.00% |           0      0.00%    100.00% |           0      0.00%    100.00% |           0      0.00%    100.00% (Unspecified)
system.ruby.RequestType.LD.latency_hist_seqr::total     16472501                       (Unspecified)
system.ruby.RequestType.LD.hit_latency_hist_seqr::bucket_size            1                       (Unspecified)
system.ruby.RequestType.LD.hit_latency_hist_seqr::max_bucket            9                       (Unspecified)
system.ruby.RequestType.LD.hit_latency_hist_seqr::samples     16472501                       (Unspecified)
system.ruby.RequestType.LD.hit_latency_hist_seqr::mean            1                       (Unspecified)
system.ruby.RequestType.LD.hit_latency_hist_seqr::gmean            1                       (Unspecified)
system.ruby.RequestType.LD.hit_latency_hist_seqr |           0      0.00%      0.00% |    16472501    100.00%    100.00% |           0      0.00%    100.00% |           0      0.00%    100.00% |           0      0.00%    100.00% |           0      0.00%    100.00% |           0      0.00%    100.00% |           0      0.00%    100.00% |           0      0.00%    100.00% |           0      0.00%    100.00% (Unspecified)
system.ruby.RequestType.LD.hit_latency_hist_seqr::total     16472501                       (Unspecified)
system.ruby.RequestType.ST.latency_hist_seqr::bucket_size            1                       (Unspecified)
system.ruby.RequestType.ST.latency_hist_seqr::max_bucket            9                       (Unspecified)
system.ruby.RequestType.ST.latency_hist_seqr::samples     16474596                       (Unspecified)
system.ruby.RequestType.ST.latency_hist_seqr::mean            1                       (Unspecified)
system.ruby.RequestType.ST.latency_hist_seqr::gmean            1                       (Unspecified)
system.ruby.RequestType.ST.latency_hist_seqr |           0      0.00%      0.00% |    16474596    100.00%    100.00% |           0      0.00%    100.00% |           0      0.00%    100.00% |           0      0.00%    100.00% |           0      0.00%    100.00% |           0      0.00%    100.00% |           0      0.00%    100.00% |           0      0.00%    100.00% |           0      0.00%    100.00% (Unspecified)
system.ruby.RequestType.ST.latency_hist_seqr::total     16474596                       (Unspecified)
system.ruby.RequestType.ST.hit_latency_hist_seqr::bucket_size            1                       (Unspecified)
system.ruby.RequestType.ST.hit_latency_hist_seqr::max_bucket            9                       (Unspecified)
system.ruby.RequestType.ST.hit_latency_hist_seqr::samples     16474596                       (Unspecified)
system.ruby.RequestType.ST.hit_latency_hist_seqr::mean            1                       (Unspecified)
system.ruby.RequestType.ST.hit_latency_hist_seqr::gmean            1                       (Unspecified)
system.ruby.RequestType.ST.hit_latency_hist_seqr |           0      0.00%      0.00% |    16474596    100.00%    100.00% |           0      0.00%    100.00% |           0      0.00%    100.00% |           0      0.00%    100.00% |           0      0.00%    100.00% |           0      0.00%    100.00% |           0      0.00%    100.00% |           0      0.00%    100.00% |           0      0.00%    100.00% (Unspecified)
system.ruby.RequestType.ST.hit_latency_hist_seqr::total     16474596                       (Unspecified)
system.ruby.RequestType.IFETCH.latency_hist_seqr::bucket_size            1                       (Unspecified)
system.ruby.RequestType.IFETCH.latency_hist_seqr::max_bucket            9                       (Unspecified)
system.ruby.RequestType.IFETCH.latency_hist_seqr::samples     16473665                       (Unspecified)
system.ruby.RequestType.IFETCH.latency_hist_seqr::mean            1                       (Unspecified)
system.ruby.RequestType.IFETCH.latency_hist_seqr::gmean            1                       (Unspecified)
system.ruby.RequestType.IFETCH.latency_hist_seqr |           0      0.00%      0.00% |    16473665    100.00%    100.00% |           0      0.00%    100.00% |           0      0.00%    100.00% |           0      0.00%    100.00% |           0      0.00%    100.00% |           0      0.00%    100.00% |           0      0.00%    100.00% |           0      0.00%    100.00% |           0      0.00%    100.00% (Unspecified)
system.ruby.RequestType.IFETCH.latency_hist_seqr::total     16473665                       (Unspecified)
system.ruby.RequestType.IFETCH.hit_latency_hist_seqr::bucket_size            1                       (Unspecified)
system.ruby.RequestType.IFETCH.hit_latency_hist_seqr::max_bucket            9                       (Unspecified)
system.ruby.RequestType.IFETCH.hit_latency_hist_seqr::samples     16473665                       (Unspecified)
system.ruby.RequestType.IFETCH.hit_latency_hist_seqr::mean            1                       (Unspecified)
system.ruby.RequestType.IFETCH.hit_latency_hist_seqr::gmean            1                       (Unspecified)
system.ruby.RequestType.IFETCH.hit_latency_hist_seqr |           0      0.00%      0.00% |    16473665    100.00%    100.00% |           0      0.00%    100.00% |           0      0.00%    100.00% |           0      0.00%    100.00% |           0      0.00%    100.00% |           0      0.00%    100.00% |           0      0.00%    100.00% |           0      0.00%    100.00% |           0      0.00%    100.00% (Unspecified)
system.ruby.RequestType.IFETCH.hit_latency_hist_seqr::total     16473665                       (Unspecified)
system.ruby.clk_domain.clock                      250                       # Clock period in ticks (Tick)
system.ruby.dir_cntrl0.forwardToDir.m_msg_count       257744                       # Number of messages passed the buffer (Count)
system.ruby.dir_cntrl0.forwardToDir.m_buf_msgs     0.030005                       # Average number of messages in buffer ((Count/Tick))
system.ruby.dir_cntrl0.power_state.pwrStateResidencyTicks::UNDEFINED   2147483750                       # Cumulative time (in ticks) in various power states (Tick)
system.ruby.dir_cntrl0.requestToDir.m_msg_count       256779                       # Number of messages passed the buffer (Count)
system.ruby.dir_cntrl0.requestToDir.m_buf_msgs     0.029893                       # Average number of messages in buffer ((Count/Tick))
system.ruby.dir_cntrl0.responseToDir.m_msg_count       193278                       # Number of messages passed the buffer (Count)
system.ruby.dir_cntrl0.responseToDir.m_buf_msgs     0.022501                       # Average number of messages in buffer ((Count/Tick))
system.ruby.dir_cntrl1.forwardToDir.m_msg_count       257336                       # Number of messages passed the buffer (Count)
system.ruby.dir_cntrl1.forwardToDir.m_buf_msgs     0.029958                       # Average number of messages in buffer ((Count/Tick))
system.ruby.dir_cntrl1.power_state.pwrStateResidencyTicks::UNDEFINED   2147483750                       # Cumulative time (in ticks) in various power states (Tick)
system.ruby.dir_cntrl1.requestToDir.m_msg_count       257413                       # Number of messages passed the buffer (Count)
system.ruby.dir_cntrl1.requestToDir.m_buf_msgs     0.029967                       # Average number of messages in buffer ((Count/Tick))
system.ruby.dir_cntrl1.responseToDir.m_msg_count       194442                       # Number of messages passed the buffer (Count)
system.ruby.dir_cntrl1.responseToDir.m_buf_msgs     0.022636                       # Average number of messages in buffer ((Count/Tick))
system.ruby.dir_cntrl10.forwardToDir.m_msg_count       258345                       # Number of messages passed the buffer (Count)
system.ruby.dir_cntrl10.forwardToDir.m_buf_msgs     0.030075                       # Average number of messages in buffer ((Count/Tick))
system.ruby.dir_cntrl10.power_state.pwrStateResidencyTicks::UNDEFINED   2147483750                       # Cumulative time (in ticks) in various power states (Tick)
system.ruby.dir_cntrl10.requestToDir.m_msg_count       257378                       # Number of messages passed the buffer (Count)
system.ruby.dir_cntrl10.requestToDir.m_buf_msgs     0.029963                       # Average number of messages in buffer ((Count/Tick))
system.ruby.dir_cntrl10.responseToDir.m_msg_count       194206                       # Number of messages passed the buffer (Count)
system.ruby.dir_cntrl10.responseToDir.m_buf_msgs     0.022609                       # Average number of messages in buffer ((Count/Tick))
system.ruby.dir_cntrl11.forwardToDir.m_msg_count       257420                       # Number of messages passed the buffer (Count)
system.ruby.dir_cntrl11.forwardToDir.m_buf_msgs     0.029968                       # Average number of messages in buffer ((Count/Tick))
system.ruby.dir_cntrl11.power_state.pwrStateResidencyTicks::UNDEFINED   2147483750                       # Cumulative time (in ticks) in various power states (Tick)
system.ruby.dir_cntrl11.requestToDir.m_msg_count       258071                       # Number of messages passed the buffer (Count)
system.ruby.dir_cntrl11.requestToDir.m_buf_msgs     0.030043                       # Average number of messages in buffer ((Count/Tick))
system.ruby.dir_cntrl11.responseToDir.m_msg_count       193726                       # Number of messages passed the buffer (Count)
system.ruby.dir_cntrl11.responseToDir.m_buf_msgs     0.022553                       # Average number of messages in buffer ((Count/Tick))
system.ruby.dir_cntrl12.forwardToDir.m_msg_count       256248                       # Number of messages passed the buffer (Count)
system.ruby.dir_cntrl12.forwardToDir.m_buf_msgs     0.029831                       # Average number of messages in buffer ((Count/Tick))
system.ruby.dir_cntrl12.power_state.pwrStateResidencyTicks::UNDEFINED   2147483750                       # Cumulative time (in ticks) in various power states (Tick)
system.ruby.dir_cntrl12.requestToDir.m_msg_count       257275                       # Number of messages passed the buffer (Count)
system.ruby.dir_cntrl12.requestToDir.m_buf_msgs     0.029951                       # Average number of messages in buffer ((Count/Tick))
system.ruby.dir_cntrl12.responseToDir.m_msg_count       193905                       # Number of messages passed the buffer (Count)
system.ruby.dir_cntrl12.responseToDir.m_buf_msgs     0.022574                       # Average number of messages in buffer ((Count/Tick))
system.ruby.dir_cntrl13.forwardToDir.m_msg_count       257575                       # Number of messages passed the buffer (Count)
system.ruby.dir_cntrl13.forwardToDir.m_buf_msgs     0.029986                       # Average number of messages in buffer ((Count/Tick))
system.ruby.dir_cntrl13.power_state.pwrStateResidencyTicks::UNDEFINED   2147483750                       # Cumulative time (in ticks) in various power states (Tick)
system.ruby.dir_cntrl13.requestToDir.m_msg_count       256980                       # Number of messages passed the buffer (Count)
system.ruby.dir_cntrl13.requestToDir.m_buf_msgs     0.029916                       # Average number of messages in buffer ((Count/Tick))
system.ruby.dir_cntrl13.responseToDir.m_msg_count       194573                       # Number of messages passed the buffer (Count)
system.ruby.dir_cntrl13.responseToDir.m_buf_msgs     0.022651                       # Average number of messages in buffer ((Count/Tick))
system.ruby.dir_cntrl14.forwardToDir.m_msg_count       257411                       # Number of messages passed the buffer (Count)
system.ruby.dir_cntrl14.forwardToDir.m_buf_msgs     0.029967                       # Average number of messages in buffer ((Count/Tick))
system.ruby.dir_cntrl14.power_state.pwrStateResidencyTicks::UNDEFINED   2147483750                       # Cumulative time (in ticks) in various power states (Tick)
system.ruby.dir_cntrl14.requestToDir.m_msg_count       256123                       # Number of messages passed the buffer (Count)
system.ruby.dir_cntrl14.requestToDir.m_buf_msgs     0.029817                       # Average number of messages in buffer ((Count/Tick))
system.ruby.dir_cntrl14.responseToDir.m_msg_count       193433                       # Number of messages passed the buffer (Count)
system.ruby.dir_cntrl14.responseToDir.m_buf_msgs     0.022519                       # Average number of messages in buffer ((Count/Tick))
system.ruby.dir_cntrl15.forwardToDir.m_msg_count       257872                       # Number of messages passed the buffer (Count)
system.ruby.dir_cntrl15.forwardToDir.m_buf_msgs     0.030020                       # Average number of messages in buffer ((Count/Tick))
system.ruby.dir_cntrl15.power_state.pwrStateResidencyTicks::UNDEFINED   2147483750                       # Cumulative time (in ticks) in various power states (Tick)
system.ruby.dir_cntrl15.requestToDir.m_msg_count       257757                       # Number of messages passed the buffer (Count)
system.ruby.dir_cntrl15.requestToDir.m_buf_msgs     0.030007                       # Average number of messages in buffer ((Count/Tick))
system.ruby.dir_cntrl15.responseToDir.m_msg_count       194472                       # Number of messages passed the buffer (Count)
system.ruby.dir_cntrl15.responseToDir.m_buf_msgs     0.022640                       # Average number of messages in buffer ((Count/Tick))
system.ruby.dir_cntrl16.forwardToDir.m_msg_count       258266                       # Number of messages passed the buffer (Count)
system.ruby.dir_cntrl16.forwardToDir.m_buf_msgs     0.030066                       # Average number of messages in buffer ((Count/Tick))
system.ruby.dir_cntrl16.power_state.pwrStateResidencyTicks::UNDEFINED   2147483750                       # Cumulative time (in ticks) in various power states (Tick)
system.ruby.dir_cntrl16.requestToDir.m_msg_count       256915                       # Number of messages passed the buffer (Count)
system.ruby.dir_cntrl16.requestToDir.m_buf_msgs     0.029909                       # Average number of messages in buffer ((Count/Tick))
system.ruby.dir_cntrl16.responseToDir.m_msg_count       194399                       # Number of messages passed the buffer (Count)
system.ruby.dir_cntrl16.responseToDir.m_buf_msgs     0.022631                       # Average number of messages in buffer ((Count/Tick))
system.ruby.dir_cntrl17.forwardToDir.m_msg_count       258201                       # Number of messages passed the buffer (Count)
system.ruby.dir_cntrl17.forwardToDir.m_buf_msgs     0.030059                       # Average number of messages in buffer ((Count/Tick))
system.ruby.dir_cntrl17.power_state.pwrStateResidencyTicks::UNDEFINED   2147483750                       # Cumulative time (in ticks) in various power states (Tick)
system.ruby.dir_cntrl17.requestToDir.m_msg_count       258023                       # Number of messages passed the buffer (Count)
system.ruby.dir_cntrl17.requestToDir.m_buf_msgs     0.030038                       # Average number of messages in buffer ((Count/Tick))
system.ruby.dir_cntrl17.responseToDir.m_msg_count       194047                       # Number of messages passed the buffer (Count)
system.ruby.dir_cntrl17.responseToDir.m_buf_msgs     0.022590                       # Average number of messages in buffer ((Count/Tick))
system.ruby.dir_cntrl18.forwardToDir.m_msg_count       256604                       # Number of messages passed the buffer (Count)
system.ruby.dir_cntrl18.forwardToDir.m_buf_msgs     0.029873                       # Average number of messages in buffer ((Count/Tick))
system.ruby.dir_cntrl18.power_state.pwrStateResidencyTicks::UNDEFINED   2147483750                       # Cumulative time (in ticks) in various power states (Tick)
system.ruby.dir_cntrl18.requestToDir.m_msg_count       258039                       # Number of messages passed the buffer (Count)
system.ruby.dir_cntrl18.requestToDir.m_buf_msgs     0.030040                       # Average number of messages in buffer ((Count/Tick))
system.ruby.dir_cntrl18.responseToDir.m_msg_count       195076                       # Number of messages passed the buffer (Count)
system.ruby.dir_cntrl18.responseToDir.m_buf_msgs     0.022710                       # Average number of messages in buffer ((Count/Tick))
system.ruby.dir_cntrl19.forwardToDir.m_msg_count       257726                       # Number of messages passed the buffer (Count)
system.ruby.dir_cntrl19.forwardToDir.m_buf_msgs     0.030003                       # Average number of messages in buffer ((Count/Tick))
system.ruby.dir_cntrl19.power_state.pwrStateResidencyTicks::UNDEFINED   2147483750                       # Cumulative time (in ticks) in various power states (Tick)
system.ruby.dir_cntrl19.requestToDir.m_msg_count       257194                       # Number of messages passed the buffer (Count)
system.ruby.dir_cntrl19.requestToDir.m_buf_msgs     0.029941                       # Average number of messages in buffer ((Count/Tick))
system.ruby.dir_cntrl19.responseToDir.m_msg_count       193186                       # Number of messages passed the buffer (Count)
system.ruby.dir_cntrl19.responseToDir.m_buf_msgs     0.022490                       # Average number of messages in buffer ((Count/Tick))
system.ruby.dir_cntrl2.forwardToDir.m_msg_count       257362                       # Number of messages passed the buffer (Count)
system.ruby.dir_cntrl2.forwardToDir.m_buf_msgs     0.029961                       # Average number of messages in buffer ((Count/Tick))
system.ruby.dir_cntrl2.power_state.pwrStateResidencyTicks::UNDEFINED   2147483750                       # Cumulative time (in ticks) in various power states (Tick)
system.ruby.dir_cntrl2.requestToDir.m_msg_count       257572                       # Number of messages passed the buffer (Count)
system.ruby.dir_cntrl2.requestToDir.m_buf_msgs     0.029985                       # Average number of messages in buffer ((Count/Tick))
system.ruby.dir_cntrl2.responseToDir.m_msg_count       193766                       # Number of messages passed the buffer (Count)
system.ruby.dir_cntrl2.responseToDir.m_buf_msgs     0.022557                       # Average number of messages in buffer ((Count/Tick))
system.ruby.dir_cntrl20.forwardToDir.m_msg_count       257048                       # Number of messages passed the buffer (Count)
system.ruby.dir_cntrl20.forwardToDir.m_buf_msgs     0.029924                       # Average number of messages in buffer ((Count/Tick))
system.ruby.dir_cntrl20.power_state.pwrStateResidencyTicks::UNDEFINED   2147483750                       # Cumulative time (in ticks) in various power states (Tick)
system.ruby.dir_cntrl20.requestToDir.m_msg_count       257644                       # Number of messages passed the buffer (Count)
system.ruby.dir_cntrl20.requestToDir.m_buf_msgs     0.029994                       # Average number of messages in buffer ((Count/Tick))
system.ruby.dir_cntrl20.responseToDir.m_msg_count       194736                       # Number of messages passed the buffer (Count)
system.ruby.dir_cntrl20.responseToDir.m_buf_msgs     0.022670                       # Average number of messages in buffer ((Count/Tick))
system.ruby.dir_cntrl21.forwardToDir.m_msg_count       257351                       # Number of messages passed the buffer (Count)
system.ruby.dir_cntrl21.forwardToDir.m_buf_msgs     0.029960                       # Average number of messages in buffer ((Count/Tick))
system.ruby.dir_cntrl21.power_state.pwrStateResidencyTicks::UNDEFINED   2147483750                       # Cumulative time (in ticks) in various power states (Tick)
system.ruby.dir_cntrl21.requestToDir.m_msg_count       257242                       # Number of messages passed the buffer (Count)
system.ruby.dir_cntrl21.requestToDir.m_buf_msgs     0.029947                       # Average number of messages in buffer ((Count/Tick))
system.ruby.dir_cntrl21.responseToDir.m_msg_count       194041                       # Number of messages passed the buffer (Count)
system.ruby.dir_cntrl21.responseToDir.m_buf_msgs     0.022589                       # Average number of messages in buffer ((Count/Tick))
system.ruby.dir_cntrl22.forwardToDir.m_msg_count       256341                       # Number of messages passed the buffer (Count)
system.ruby.dir_cntrl22.forwardToDir.m_buf_msgs     0.029842                       # Average number of messages in buffer ((Count/Tick))
system.ruby.dir_cntrl22.power_state.pwrStateResidencyTicks::UNDEFINED   2147483750                       # Cumulative time (in ticks) in various power states (Tick)
system.ruby.dir_cntrl22.requestToDir.m_msg_count       256413                       # Number of messages passed the buffer (Count)
system.ruby.dir_cntrl22.requestToDir.m_buf_msgs     0.029850                       # Average number of messages in buffer ((Count/Tick))
system.ruby.dir_cntrl22.responseToDir.m_msg_count       194028                       # Number of messages passed the buffer (Count)
system.ruby.dir_cntrl22.responseToDir.m_buf_msgs     0.022588                       # Average number of messages in buffer ((Count/Tick))
system.ruby.dir_cntrl23.forwardToDir.m_msg_count       257730                       # Number of messages passed the buffer (Count)
system.ruby.dir_cntrl23.forwardToDir.m_buf_msgs     0.030004                       # Average number of messages in buffer ((Count/Tick))
system.ruby.dir_cntrl23.power_state.pwrStateResidencyTicks::UNDEFINED   2147483750                       # Cumulative time (in ticks) in various power states (Tick)
system.ruby.dir_cntrl23.requestToDir.m_msg_count       257229                       # Number of messages passed the buffer (Count)
system.ruby.dir_cntrl23.requestToDir.m_buf_msgs     0.029945                       # Average number of messages in buffer ((Count/Tick))
system.ruby.dir_cntrl23.responseToDir.m_msg_count       194444                       # Number of messages passed the buffer (Count)
system.ruby.dir_cntrl23.responseToDir.m_buf_msgs     0.022636                       # Average number of messages in buffer ((Count/Tick))
system.ruby.dir_cntrl24.forwardToDir.m_msg_count       257562                       # Number of messages passed the buffer (Count)
system.ruby.dir_cntrl24.forwardToDir.m_buf_msgs     0.029984                       # Average number of messages in buffer ((Count/Tick))
system.ruby.dir_cntrl24.power_state.pwrStateResidencyTicks::UNDEFINED   2147483750                       # Cumulative time (in ticks) in various power states (Tick)
system.ruby.dir_cntrl24.requestToDir.m_msg_count       257186                       # Number of messages passed the buffer (Count)
system.ruby.dir_cntrl24.requestToDir.m_buf_msgs     0.029940                       # Average number of messages in buffer ((Count/Tick))
system.ruby.dir_cntrl24.responseToDir.m_msg_count       194056                       # Number of messages passed the buffer (Count)
system.ruby.dir_cntrl24.responseToDir.m_buf_msgs     0.022591                       # Average number of messages in buffer ((Count/Tick))
system.ruby.dir_cntrl25.forwardToDir.m_msg_count       257330                       # Number of messages passed the buffer (Count)
system.ruby.dir_cntrl25.forwardToDir.m_buf_msgs     0.029957                       # Average number of messages in buffer ((Count/Tick))
system.ruby.dir_cntrl25.power_state.pwrStateResidencyTicks::UNDEFINED   2147483750                       # Cumulative time (in ticks) in various power states (Tick)
system.ruby.dir_cntrl25.requestToDir.m_msg_count       256667                       # Number of messages passed the buffer (Count)
system.ruby.dir_cntrl25.requestToDir.m_buf_msgs     0.029880                       # Average number of messages in buffer ((Count/Tick))
system.ruby.dir_cntrl25.responseToDir.m_msg_count       194388                       # Number of messages passed the buffer (Count)
system.ruby.dir_cntrl25.responseToDir.m_buf_msgs     0.022630                       # Average number of messages in buffer ((Count/Tick))
system.ruby.dir_cntrl26.forwardToDir.m_msg_count       257902                       # Number of messages passed the buffer (Count)
system.ruby.dir_cntrl26.forwardToDir.m_buf_msgs     0.030024                       # Average number of messages in buffer ((Count/Tick))
system.ruby.dir_cntrl26.power_state.pwrStateResidencyTicks::UNDEFINED   2147483750                       # Cumulative time (in ticks) in various power states (Tick)
system.ruby.dir_cntrl26.requestToDir.m_msg_count       257920                       # Number of messages passed the buffer (Count)
system.ruby.dir_cntrl26.requestToDir.m_buf_msgs     0.030026                       # Average number of messages in buffer ((Count/Tick))
system.ruby.dir_cntrl26.responseToDir.m_msg_count       194092                       # Number of messages passed the buffer (Count)
system.ruby.dir_cntrl26.responseToDir.m_buf_msgs     0.022595                       # Average number of messages in buffer ((Count/Tick))
system.ruby.dir_cntrl27.forwardToDir.m_msg_count       256854                       # Number of messages passed the buffer (Count)
system.ruby.dir_cntrl27.forwardToDir.m_buf_msgs     0.029902                       # Average number of messages in buffer ((Count/Tick))
system.ruby.dir_cntrl27.power_state.pwrStateResidencyTicks::UNDEFINED   2147483750                       # Cumulative time (in ticks) in various power states (Tick)
[...]
system.ruby.network.sankey.vcvn35.vcvn5             0                       (Unspecified)
system.ruby.network.sankey.vcvn35.vcvn6             0                       (Unspecified)
system.ruby.network.sankey.vcvn35.vcvn7             0                       (Unspecified)
system.ruby.network.sankey.vcvn35.vcvn8             0                       (Unspecified)
system.ruby.network.sankey.vcvn35.vcvn9             0                       (Unspecified)
system.ruby.network.sankey.vcvn4.vcvn0              0                       (Unspecified)
system.ruby.network.sankey.vcvn4.vcvn1              0                       (Unspecified)
system.ruby.network.sankey.vcvn4.vcvn10             0                       (Unspecified)
system.ruby.network.sankey.vcvn4.vcvn11             0                       (Unspecified)
system.ruby.network.sankey.vcvn4.vcvn12             0                       (Unspecified)
system.ruby.network.sankey.vcvn4.vcvn13             0                       (Unspecified)
system.ruby.network.sankey.vcvn4.vcvn14             0                       (Unspecified)
system.ruby.network.sankey.vcvn4.vcvn15             0                       (Unspecified)
system.ruby.network.sankey.vcvn4.vcvn16             0                       (Unspecified)
system.ruby.network.sankey.vcvn4.vcvn17             0                       (Unspecified)
system.ruby.network.sankey.vcvn4.vcvn18             0                       (Unspecified)
system.ruby.network.sankey.vcvn4.vcvn19             0                       (Unspecified)
system.ruby.network.sankey.vcvn4.vcvn2              0                       (Unspecified)
system.ruby.network.sankey.vcvn4.vcvn20             0                       (Unspecified)
system.ruby.network.sankey.vcvn4.vcvn21             0                       (Unspecified)
system.ruby.network.sankey.vcvn4.vcvn22             0                       (Unspecified)
system.ruby.network.sankey.vcvn4.vcvn23             0                       (Unspecified)
system.ruby.network.sankey.vcvn4.vcvn24             0                       (Unspecified)
system.ruby.network.sankey.vcvn4.vcvn25             0                       (Unspecified)
system.ruby.network.sankey.vcvn4.vcvn26             0                       (Unspecified)
system.ruby.network.sankey.vcvn4.vcvn27             0                       (Unspecified)
system.ruby.network.sankey.vcvn4.vcvn28             0                       (Unspecified)
system.ruby.network.sankey.vcvn4.vcvn29             0                       (Unspecified)
system.ruby.network.sankey.vcvn4.vcvn3              0                       (Unspecified)
system.ruby.network.sankey.vcvn4.vcvn30             0                       (Unspecified)
system.ruby.network.sankey.vcvn4.vcvn31             0                       (Unspecified)
system.ruby.network.sankey.vcvn4.vcvn32             0                       (Unspecified)
system.ruby.network.sankey.vcvn4.vcvn33             0                       (Unspecified)
system.ruby.network.sankey.vcvn4.vcvn34             0                       (Unspecified)
system.ruby.network.sankey.vcvn4.vcvn35             0                       (Unspecified)
system.ruby.network.sankey.vcvn4.vcvn4        1306868                       (Unspecified)
system.ruby.network.sankey.vcvn4.vcvn5              0                       (Unspecified)
system.ruby.network.sankey.vcvn4.vcvn6              0                       (Unspecified)
system.ruby.network.sankey.vcvn4.vcvn7              0                       (Unspecified)
system.ruby.network.sankey.vcvn4.vcvn8              0                       (Unspecified)
system.ruby.network.sankey.vcvn4.vcvn9              0                       (Unspecified)
system.ruby.network.sankey.vcvn5.vcvn0              0                       (Unspecified)
system.ruby.network.sankey.vcvn5.vcvn1              0                       (Unspecified)
system.ruby.network.sankey.vcvn5.vcvn10             0                       (Unspecified)
system.ruby.network.sankey.vcvn5.vcvn11             0                       (Unspecified)
system.ruby.network.sankey.vcvn5.vcvn12             0                       (Unspecified)
system.ruby.network.sankey.vcvn5.vcvn13             0                       (Unspecified)
system.ruby.network.sankey.vcvn5.vcvn14             0                       (Unspecified)
system.ruby.network.sankey.vcvn5.vcvn15             0                       (Unspecified)
system.ruby.network.sankey.vcvn5.vcvn16             0                       (Unspecified)
system.ruby.network.sankey.vcvn5.vcvn17             0                       (Unspecified)
system.ruby.network.sankey.vcvn5.vcvn18             0                       (Unspecified)
system.ruby.network.sankey.vcvn5.vcvn19             0                       (Unspecified)
system.ruby.network.sankey.vcvn5.vcvn2              0                       (Unspecified)
system.ruby.network.sankey.vcvn5.vcvn20             0                       (Unspecified)
system.ruby.network.sankey.vcvn5.vcvn21             0                       (Unspecified)
system.ruby.network.sankey.vcvn5.vcvn22             0                       (Unspecified)
system.ruby.network.sankey.vcvn5.vcvn23             0                       (Unspecified)
system.ruby.network.sankey.vcvn5.vcvn24             0                       (Unspecified)
system.ruby.network.sankey.vcvn5.vcvn25             0                       (Unspecified)
system.ruby.network.sankey.vcvn5.vcvn26             0                       (Unspecified)
system.ruby.network.sankey.vcvn5.vcvn27             0                       (Unspecified)
system.ruby.network.sankey.vcvn5.vcvn28             0                       (Unspecified)
system.ruby.network.sankey.vcvn5.vcvn29             0                       (Unspecified)
system.ruby.network.sankey.vcvn5.vcvn3              0                       (Unspecified)
system.ruby.network.sankey.vcvn5.vcvn30             0                       (Unspecified)
system.ruby.network.sankey.vcvn5.vcvn31             0                       (Unspecified)
system.ruby.network.sankey.vcvn5.vcvn32             0                       (Unspecified)
system.ruby.network.sankey.vcvn5.vcvn33             0                       (Unspecified)
system.ruby.network.sankey.vcvn5.vcvn34             0                       (Unspecified)
system.ruby.network.sankey.vcvn5.vcvn35             0                       (Unspecified)
system.ruby.network.sankey.vcvn5.vcvn4              0                       (Unspecified)
system.ruby.network.sankey.vcvn5.vcvn5        1083264                       (Unspecified)
system.ruby.network.sankey.vcvn5.vcvn6              0                       (Unspecified)
system.ruby.network.sankey.vcvn5.vcvn7              0                       (Unspecified)
system.ruby.network.sankey.vcvn5.vcvn8              0                       (Unspecified)
system.ruby.network.sankey.vcvn5.vcvn9              0                       (Unspecified)
system.ruby.network.sankey.vcvn6.vcvn0              0                       (Unspecified)
system.ruby.network.sankey.vcvn6.vcvn1              0                       (Unspecified)
system.ruby.network.sankey.vcvn6.vcvn10             0                       (Unspecified)
system.ruby.network.sankey.vcvn6.vcvn11             0                       (Unspecified)
system.ruby.network.sankey.vcvn6.vcvn12             0                       (Unspecified)
system.ruby.network.sankey.vcvn6.vcvn13             0                       (Unspecified)
system.ruby.network.sankey.vcvn6.vcvn14             0                       (Unspecified)
system.ruby.network.sankey.vcvn6.vcvn15             0                       (Unspecified)
system.ruby.network.sankey.vcvn6.vcvn16             0                       (Unspecified)
system.ruby.network.sankey.vcvn6.vcvn17             0                       (Unspecified)
system.ruby.network.sankey.vcvn6.vcvn18             0                       (Unspecified)
system.ruby.network.sankey.vcvn6.vcvn19             0                       (Unspecified)
system.ruby.network.sankey.vcvn6.vcvn2              0                       (Unspecified)
system.ruby.network.sankey.vcvn6.vcvn20             0                       (Unspecified)
system.ruby.network.sankey.vcvn6.vcvn21             0                       (Unspecified)
system.ruby.network.sankey.vcvn6.vcvn22             0                       (Unspecified)
system.ruby.network.sankey.vcvn6.vcvn23             0                       (Unspecified)
system.ruby.network.sankey.vcvn6.vcvn24             0                       (Unspecified)
system.ruby.network.sankey.vcvn6.vcvn25             0                       (Unspecified)
system.ruby.network.sankey.vcvn6.vcvn26             0                       (Unspecified)
system.ruby.network.sankey.vcvn6.vcvn27             0                       (Unspecified)
system.ruby.network.sankey.vcvn6.vcvn28             0                       (Unspecified)
system.ruby.network.sankey.vcvn6.vcvn29             0                       (Unspecified)
system.ruby.network.sankey.vcvn6.vcvn3              0                       (Unspecified)
system.ruby.network.sankey.vcvn6.vcvn30             0                       (Unspecified)
system.ruby.network.sankey.vcvn6.vcvn31             0                       (Unspecified)
system.ruby.network.sankey.vcvn6.vcvn32             0                       (Unspecified)
system.ruby.network.sankey.vcvn6.vcvn33             0                       (Unspecified)
system.ruby.network.sankey.vcvn6.vcvn34             0                       (Unspecified)
system.ruby.network.sankey.vcvn6.vcvn35             0                       (Unspecified)
system.ruby.network.sankey.vcvn6.vcvn4              0                       (Unspecified)
system.ruby.network.sankey.vcvn6.vcvn5              0                       (Unspecified)
system.ruby.network.sankey.vcvn6.vcvn6         870152                       (Unspecified)
system.ruby.network.sankey.vcvn6.vcvn7              0                       (Unspecified)
system.ruby.network.sankey.vcvn6.vcvn8              0                       (Unspecified)
system.ruby.network.sankey.vcvn6.vcvn9              0                       (Unspecified)
system.ruby.network.sankey.vcvn7.vcvn0              0                       (Unspecified)
system.ruby.network.sankey.vcvn7.vcvn1              0                       (Unspecified)
system.ruby.network.sankey.vcvn7.vcvn10             0                       (Unspecified)
system.ruby.network.sankey.vcvn7.vcvn11             0                       (Unspecified)
system.ruby.network.sankey.vcvn7.vcvn12             0                       (Unspecified)
system.ruby.network.sankey.vcvn7.vcvn13             0                       (Unspecified)
system.ruby.network.sankey.vcvn7.vcvn14             0                       (Unspecified)
system.ruby.network.sankey.vcvn7.vcvn15             0                       (Unspecified)
system.ruby.network.sankey.vcvn7.vcvn16             0                       (Unspecified)
system.ruby.network.sankey.vcvn7.vcvn17             0                       (Unspecified)
system.ruby.network.sankey.vcvn7.vcvn18             0                       (Unspecified)
system.ruby.network.sankey.vcvn7.vcvn19             0                       (Unspecified)
system.ruby.network.sankey.vcvn7.vcvn2              0                       (Unspecified)
system.ruby.network.sankey.vcvn7.vcvn20             0                       (Unspecified)
system.ruby.network.sankey.vcvn7.vcvn21             0                       (Unspecified)
system.ruby.network.sankey.vcvn7.vcvn22             0                       (Unspecified)
system.ruby.network.sankey.vcvn7.vcvn23             0                       (Unspecified)
system.ruby.network.sankey.vcvn7.vcvn24             0                       (Unspecified)
system.ruby.network.sankey.vcvn7.vcvn25             0                       (Unspecified)
system.ruby.network.sankey.vcvn7.vcvn26             0                       (Unspecified)
system.ruby.network.sankey.vcvn7.vcvn27             0                       (Unspecified)
system.ruby.network.sankey.vcvn7.vcvn28             0                       (Unspecified)
system.ruby.network.sankey.vcvn7.vcvn29             0                       (Unspecified)
system.ruby.network.sankey.vcvn7.vcvn3              0                       (Unspecified)
system.ruby.network.sankey.vcvn7.vcvn30             0                       (Unspecified)
system.ruby.network.sankey.vcvn7.vcvn31             0                       (Unspecified)
system.ruby.network.sankey.vcvn7.vcvn32             0                       (Unspecified)
system.ruby.network.sankey.vcvn7.vcvn33             0                       (Unspecified)
system.ruby.network.sankey.vcvn7.vcvn34             0                       (Unspecified)
system.ruby.network.sankey.vcvn7.vcvn35             0                       (Unspecified)
system.ruby.network.sankey.vcvn7.vcvn4              0                       (Unspecified)
system.ruby.network.sankey.vcvn7.vcvn5              0                       (Unspecified)
system.ruby.network.sankey.vcvn7.vcvn6              0                       (Unspecified)
system.ruby.network.sankey.vcvn7.vcvn7        1246344                       (Unspecified)
system.ruby.network.sankey.vcvn7.vcvn8              0                       (Unspecified)
system.ruby.network.sankey.vcvn7.vcvn9              0                       (Unspecified)
system.ruby.network.sankey.vcvn8.vcvn0              0                       (Unspecified)
system.ruby.network.sankey.vcvn8.vcvn1              0                       (Unspecified)
system.ruby.network.sankey.vcvn8.vcvn10             0                       (Unspecified)
system.ruby.network.sankey.vcvn8.vcvn11             0                       (Unspecified)
system.ruby.network.sankey.vcvn8.vcvn12             0                       (Unspecified)
system.ruby.network.sankey.vcvn8.vcvn13             0                       (Unspecified)
system.ruby.network.sankey.vcvn8.vcvn14             0                       (Unspecified)
system.ruby.network.sankey.vcvn8.vcvn15             0                       (Unspecified)
system.ruby.network.sankey.vcvn8.vcvn16             0                       (Unspecified)
system.ruby.network.sankey.vcvn8.vcvn17             0                       (Unspecified)
system.ruby.network.sankey.vcvn8.vcvn18             0                       (Unspecified)
system.ruby.network.sankey.vcvn8.vcvn19             0                       (Unspecified)
system.ruby.network.sankey.vcvn8.vcvn2              0                       (Unspecified)
system.ruby.network.sankey.vcvn8.vcvn20             0                       (Unspecified)
system.ruby.network.sankey.vcvn8.vcvn21             0                       (Unspecified)
system.ruby.network.sankey.vcvn8.vcvn22             0                       (Unspecified)
system.ruby.network.sankey.vcvn8.vcvn23             0                       (Unspecified)
system.ruby.network.sankey.vcvn8.vcvn24             0                       (Unspecified)
system.ruby.network.sankey.vcvn8.vcvn25             0                       (Unspecified)
system.ruby.network.sankey.vcvn8.vcvn26             0                       (Unspecified)
system.ruby.network.sankey.vcvn8.vcvn27             0                       (Unspecified)
system.ruby.network.sankey.vcvn8.vcvn28             0                       (Unspecified)
system.ruby.network.sankey.vcvn8.vcvn29             0                       (Unspecified)
system.ruby.network.sankey.vcvn8.vcvn3              0                       (Unspecified)
system.ruby.network.sankey.vcvn8.vcvn30             0                       (Unspecified)
system.ruby.network.sankey.vcvn8.vcvn31             0                       (Unspecified)
system.ruby.network.sankey.vcvn8.vcvn32             0                       (Unspecified)
system.ruby.network.sankey.vcvn8.vcvn33             0                       (Unspecified)
system.ruby.network.sankey.vcvn8.vcvn34             0                       (Unspecified)
system.ruby.network.sankey.vcvn8.vcvn35             0                       (Unspecified)
system.ruby.network.sankey.vcvn8.vcvn4              0                       (Unspecified)
system.ruby.network.sankey.vcvn8.vcvn5              0                       (Unspecified)
system.ruby.network.sankey.vcvn8.vcvn6              0                       (Unspecified)
system.ruby.network.sankey.vcvn8.vcvn7              0                       (Unspecified)
system.ruby.network.sankey.vcvn8.vcvn8        1498658                       (Unspecified)
system.ruby.network.sankey.vcvn8.vcvn9              0                       (Unspecified)
system.ruby.network.sankey.vcvn9.vcvn0              0                       (Unspecified)
system.ruby.network.sankey.vcvn9.vcvn1              0                       (Unspecified)
system.ruby.network.sankey.vcvn9.vcvn10             0                       (Unspecified)
system.ruby.network.sankey.vcvn9.vcvn11             0                       (Unspecified)
system.ruby.network.sankey.vcvn9.vcvn12             0                       (Unspecified)
system.ruby.network.sankey.vcvn9.vcvn13             0                       (Unspecified)
system.ruby.network.sankey.vcvn9.vcvn14             0                       (Unspecified)
system.ruby.network.sankey.vcvn9.vcvn15             0                       (Unspecified)
system.ruby.network.sankey.vcvn9.vcvn16             0                       (Unspecified)
system.ruby.network.sankey.vcvn9.vcvn17             0                       (Unspecified)
system.ruby.network.sankey.vcvn9.vcvn18             0                       (Unspecified)
system.ruby.network.sankey.vcvn9.vcvn19             0                       (Unspecified)
system.ruby.network.sankey.vcvn9.vcvn2              0                       (Unspecified)
system.ruby.network.sankey.vcvn9.vcvn20             0                       (Unspecified)
system.ruby.network.sankey.vcvn9.vcvn21             0                       (Unspecified)
system.ruby.network.sankey.vcvn9.vcvn22             0                       (Unspecified)
system.ruby.network.sankey.vcvn9.vcvn23             0                       (Unspecified)
system.ruby.network.sankey.vcvn9.vcvn24             0                       (Unspecified)
system.ruby.network.sankey.vcvn9.vcvn25             0                       (Unspecified)
system.ruby.network.sankey.vcvn9.vcvn26             0                       (Unspecified)
system.ruby.network.sankey.vcvn9.vcvn27             0                       (Unspecified)
system.ruby.network.sankey.vcvn9.vcvn28             0                       (Unspecified)
system.ruby.network.sankey.vcvn9.vcvn29             0                       (Unspecified)
system.ruby.network.sankey.vcvn9.vcvn3              0                       (Unspecified)
system.ruby.network.sankey.vcvn9.vcvn30             0                       (Unspecified)
system.ruby.network.sankey.vcvn9.vcvn31             0                       (Unspecified)
system.ruby.network.sankey.vcvn9.vcvn32             0                       (Unspecified)
system.ruby.network.sankey.vcvn9.vcvn33             0                       (Unspecified)
system.ruby.network.sankey.vcvn9.vcvn34             0                       (Unspecified)
system.ruby.network.sankey.vcvn9.vcvn35             0                       (Unspecified)
system.ruby.network.sankey.vcvn9.vcvn4              0                       (Unspecified)
system.ruby.network.sankey.vcvn9.vcvn5              0                       (Unspecified)
system.ruby.network.sankey.vcvn9.vcvn6              0                       (Unspecified)
system.ruby.network.sankey.vcvn9.vcvn7              0                       (Unspecified)
system.ruby.network.sankey.vcvn9.vcvn8              0                       (Unspecified)
system.ruby.network.sankey.vcvn9.vcvn9        1218264                       (Unspecified)

---------- End Simulation Statistics   ----------
