
---------- Begin Simulation Statistics ----------
simSeconds                                   0.002147                       # Number of seconds simulated (Second)
simTicks                                   2147483750                       # Number of ticks simulated (Tick)
finalTick                                  2147483750                       # Number of ticks from beginning of simulation (restored from checkpoints and never reset) (Tick)
simFreq                                  1000000000000                       # The number of ticks per simulated second ((Tick/Second))
hostSeconds                                  36715.93                       # Real time elapsed on the host (Second)
hostTickRate                                    58489                       # The number of ticks simulated per host second (ticks/s) ((Tick/Second))
hostMemory                                   41974328                       # Number of bytes of host memory used (Byte)
system.clk_domain.clock                           250                       # Clock period in ticks (Tick)
system.cpu0.power_state.pwrStateResidencyTicks::UNDEFINED   2147483750                       # Cumulative time (in ticks) in various power states (Tick)
system.cpu1.power_state.pwrStateResidencyTicks::UNDEFINED   2147483750                       # Cumulative time (in ticks) in various power states (Tick)
system.cpu10.power_state.pwrStateResidencyTicks::UNDEFINED   2147483750                       # Cumulative time (in ticks) in various power states (Tick)
system.cpu11.power_state.pwrStateResidencyTicks::UNDEFINED   2147483750                       # Cumulative time (in ticks) in various power states (Tick)
system.cpu12.power_state.pwrStateResidencyTicks::UNDEFINED   2147483750                       # Cumulative time (in ticks) in various power states (Tick)
system.cpu13.power_state.pwrStateResidencyTicks::UNDEFINED   2147483750                       # Cumulative time (in ticks) in various power states (Tick)
system.cpu14.power_state.pwrStateResidencyTicks::UNDEFINED   2147483750                       # Cumulative time (in ticks) in various power states (Tick)
system.cpu15.power_state.pwrStateResidencyTicks::UNDEFINED   2147483750                       # Cumulative time (in ticks) in various power states (Tick)
system.cpu16.power_state.pwrStateResidencyTicks::UNDEFINED   2147483750                       # Cumulative time (in ticks) in various power states (Tick)
system.cpu17.power_state.pwrStateResidencyTicks::UNDEFINED   2147483750                       # Cumulative time (in ticks) in various power states (Tick)
system.cpu18.power_state.pwrStateResidencyTicks::UNDEFINED   2147483750                       # Cumulative time (in ticks) in various power states (Tick)
system.cpu19.power_state.pwrStateResidencyTicks::UNDEFINED   2147483750                       # Cumulative time (in ticks) in various power states (Tick)
system.cpu2.power_state.pwrStateResidencyTicks::UNDEFINED   2147483750                       # Cumulative time (in ticks) in various power states (Tick)
system.cpu20.power_state.pwrStateResidencyTicks::UNDEFINED   2147483750                       # Cumulative time (in ticks) in various power states (Tick)
system.cpu21.power_state.pwrStateResidencyTicks::UNDEFINED   2147483750                       # Cumulative time (in ticks) in various power states (Tick)
system.cpu22.power_state.pwrStateResidencyTicks::UNDEFINED   2147483750                       # Cumulative time (in ticks) in various power states (Tick)
system.cpu23.power_state.pwrStateResidencyTicks::UNDEFINED   2147483750                       # Cumulative time (in ticks) in various power states (Tick)
system.cpu24.power_state.pwrStateResidencyTicks::UNDEFINED   2147483750                       # Cumulative time (in ticks) in various power states (Tick)
system.cpu25.power_state.pwrStateResidencyTicks::UNDEFINED   2147483750                       # Cumulative time (in ticks) in various power states (Tick)
system.cpu26.power_state.pwrStateResidencyTicks::UNDEFINED   2147483750                       # Cumulative time (in ticks) in various power states (Tick)
system.cpu27.power_state.pwrStateResidencyTicks::UNDEFINED   2147483750                       # Cumulative time (in ticks) in various power states (Tick)
system.cpu28.power_state.pwrStateResidencyTicks::UNDEFINED   2147483750                       # Cumulative time (in ticks) in various power states (Tick)
system.cpu29.power_state.pwrStateResidencyTicks::UNDEFINED   2147483750                       # Cumulative time (in ticks) in various power states (Tick)
system.cpu3.power_state.pwrStateResidencyTicks::UNDEFINED   2147483750                       # Cumulative time (in ticks) in various power states (Tick)
system.cpu30.power_state.pwrStateResidencyTicks::UNDEFINED   2147483750                       # Cumulative time (in ticks) in various power states (Tick)
system.cpu31.power_state.pwrStateResidencyTicks::UNDEFINED   2147483750                       # Cumulative time (in ticks) in various power states (Tick)
system.cpu32.power_state.pwrStateResidencyTicks::UNDEFINED   2147483750                       # Cumulative time (in ticks) in various power states (Tick)
system.cpu33.power_state.pwrStateResidencyTicks::UNDEFINED   2147483750                       # Cumulative time (in ticks) in various power states (Tick)
system.cpu34.power_state.pwrStateResidencyTicks::UNDEFINED   2147483750                       # Cumulative time (in ticks) in various power states (Tick)
system.cpu35.power_state.pwrStateResidencyTicks::UNDEFINED   2147483750                       # Cumulative time (in ticks) in various power states (Tick)
system.cpu36.power_state.pwrStateResidencyTicks::UNDEFINED   2147483750                       # Cumulative time (in ticks) in various power states (Tick)
system.cpu37.power_state.pwrStateResidencyTicks::UNDEFINED   2147483750                       # Cumulative time (in ticks) in various power states (Tick)
system.cpu38.power_state.pwrStateResidencyTicks::UNDEFINED   2147483750                       # Cumulative time (in ticks) in various power states (Tick)
system.cpu39.power_state.pwrStateResidencyTicks::UNDEFINED   2147483750                       # Cumulative time (in ticks) in various power states (Tick)
system.cpu4.power_state.pwrStateResidencyTicks::UNDEFINED   2147483750                       # Cumulative time (in ticks) in various power states (Tick)
system.cpu40.power_state.pwrStateResidencyTicks::UNDEFINED   2147483750                       # Cumulative time (in ticks) in various power states (Tick)
system.cpu41.power_state.pwrStateResidencyTicks::UNDEFINED   2147483750                       # Cumulative time (in ticks) in various power states (Tick)
system.cpu42.power_state.pwrStateResidencyTicks::UNDEFINED   2147483750                       # Cumulative time (in ticks) in various power states (Tick)
system.cpu43.power_state.pwrStateResidencyTicks::UNDEFINED   2147483750                       # Cumulative time (in ticks) in various power states (Tick)
system.cpu44.power_state.pwrStateResidencyTicks::UNDEFINED   2147483750                       # Cumulative time (in ticks) in various power states (Tick)
system.cpu45.power_state.pwrStateResidencyTicks::UNDEFINED   2147483750                       # Cumulative time (in ticks) in various power states (Tick)
system.cpu46.power_state.pwrStateResidencyTicks::UNDEFINED   2147483750                       # Cumulative time (in ticks) in various power states (Tick)
system.cpu47.power_state.pwrStateResidencyTicks::UNDEFINED   2147483750                       # Cumulative time (in ticks) in various power states (Tick)
system.cpu48.power_state.pwrStateResidencyTicks::UNDEFINED   2147483750                       # Cumulative time (in ticks) in various power states (Tick)
system.cpu49.power_state.pwrStateResidencyTicks::UNDEFINED   2147483750                       # Cumulative time (in ticks) in various power states (Tick)
system.cpu5.power_state.pwrStateResidencyTicks::UNDEFINED   2147483750                       # Cumulative time (in ticks) in various power states (Tick)
system.cpu50.power_state.pwrStateResidencyTicks::UNDEFINED   2147483750                       # Cumulative time (in ticks) in various power states (Tick)
system.cpu51.power_state.pwrStateResidencyTicks::UNDEFINED   2147483750                       # Cumulative time (in ticks) in various power states (Tick)
system.cpu52.power_state.pwrStateResidencyTicks::UNDEFINED   2147483750                       # Cumulative time (in ticks) in various power states (Tick)
system.cpu53.power_state.pwrStateResidencyTicks::UNDEFINED   2147483750                       # Cumulative time (in ticks) in various power states (Tick)
system.cpu54.power_state.pwrStateResidencyTicks::UNDEFINED   2147483750                       # Cumulative time (in ticks) in various power states (Tick)
system.cpu55.power_state.pwrStateResidencyTicks::UNDEFINED   2147483750                       # Cumulative time (in ticks) in various power states (Tick)
system.cpu56.power_state.pwrStateResidencyTicks::UNDEFINED   2147483750                       # Cumulative time (in ticks) in various power states (Tick)
system.cpu57.power_state.pwrStateResidencyTicks::UNDEFINED   2147483750                       # Cumulative time (in ticks) in various power states (Tick)
system.cpu58.power_state.pwrStateResidencyTicks::UNDEFINED   2147483750                       # Cumulative time (in ticks) in various power states (Tick)
system.cpu59.power_state.pwrStateResidencyTicks::UNDEFINED   2147483750                       # Cumulative time (in ticks) in various power states (Tick)
system.cpu6.power_state.pwrStateResidencyTicks::UNDEFINED   2147483750                       # Cumulative time (in ticks) in various power states (Tick)
system.cpu60.power_state.pwrStateResidencyTicks::UNDEFINED   2147483750                       # Cumulative time (in ticks) in various power states (Tick)
system.cpu61.power_state.pwrStateResidencyTicks::UNDEFINED   2147483750                       # Cumulative time (in ticks) in various power states (Tick)
system.cpu62.power_state.pwrStateResidencyTicks::UNDEFINED   2147483750                       # Cumulative time (in ticks) in various power states (Tick)
system.cpu63.power_state.pwrStateResidencyTicks::UNDEFINED   2147483750                       # Cumulative time (in ticks) in various power states (Tick)
system.cpu7.power_state.pwrStateResidencyTicks::UNDEFINED   2147483750                       # Cumulative time (in ticks) in various power states (Tick)
system.cpu8.power_state.pwrStateResidencyTicks::UNDEFINED   2147483750                       # Cumulative time (in ticks) in various power states (Tick)
system.cpu9.power_state.pwrStateResidencyTicks::UNDEFINED   2147483750                       # Cumulative time (in ticks) in various power states (Tick)
system.mem_ctrls0.power_state.pwrStateResidencyTicks::UNDEFINED   2147483750                       # Cumulative time (in ticks) in various power states (Tick)
system.mem_ctrls1.power_state.pwrStateResidencyTicks::UNDEFINED   2147483750                       # Cumulative time (in ticks) in various power states (Tick)
system.mem_ctrls10.power_state.pwrStateResidencyTicks::UNDEFINED   2147483750                       # Cumulative time (in ticks) in various power states (Tick)
system.mem_ctrls11.power_state.pwrStateResidencyTicks::UNDEFINED   2147483750                       # Cumulative time (in ticks) in various power states (Tick)
system.mem_ctrls12.power_state.pwrStateResidencyTicks::UNDEFINED   2147483750                       # Cumulative time (in ticks) in various power states (Tick)
system.mem_ctrls13.power_state.pwrStateResidencyTicks::UNDEFINED   2147483750                       # Cumulative time (in ticks) in various power states (Tick)
system.mem_ctrls14.power_state.pwrStateResidencyTicks::UNDEFINED   2147483750                       # Cumulative time (in ticks) in various power states (Tick)
system.mem_ctrls15.power_state.pwrStateResidencyTicks::UNDEFINED   2147483750                       # Cumulative time (in ticks) in various power states (Tick)
system.mem_ctrls16.power_state.pwrStateResidencyTicks::UNDEFINED   2147483750                       # Cumulative time (in ticks) in various power states (Tick)
system.mem_ctrls17.power_state.pwrStateResidencyTicks::UNDEFINED   2147483750                       # Cumulative time (in ticks) in various power states (Tick)
system.mem_ctrls18.power_state.pwrStateResidencyTicks::UNDEFINED   2147483750                       # Cumulative time (in ticks) in various power states (Tick)
system.mem_ctrls19.power_state.pwrStateResidencyTicks::UNDEFINED   2147483750                       # Cumulative time (in ticks) in various power states (Tick)
system.mem_ctrls2.power_state.pwrStateResidencyTicks::UNDEFINED   2147483750                       # Cumulative time (in ticks) in various power states (Tick)
system.mem_ctrls20.power_state.pwrStateResidencyTicks::UNDEFINED   2147483750                       # Cumulative time (in ticks) in various power states (Tick)
system.mem_ctrls21.power_state.pwrStateResidencyTicks::UNDEFINED   2147483750                       # Cumulative time (in ticks) in various power states (Tick)
system.mem_ctrls22.power_state.pwrStateResidencyTicks::UNDEFINED   2147483750                       # Cumulative time (in ticks) in various power states (Tick)
system.mem_ctrls23.power_state.pwrStateResidencyTicks::UNDEFINED   2147483750                       # Cumulative time (in ticks) in various power states (Tick)
system.mem_ctrls24.power_state.pwrStateResidencyTicks::UNDEFINED   2147483750                       # Cumulative time (in ticks) in various power states (Tick)
system.mem_ctrls25.power_state.pwrStateResidencyTicks::UNDEFINED   2147483750                       # Cumulative time (in ticks) in various power states (Tick)
system.mem_ctrls26.power_state.pwrStateResidencyTicks::UNDEFINED   2147483750                       # Cumulative time (in ticks) in various power states (Tick)
system.mem_ctrls27.power_state.pwrStateResidencyTicks::UNDEFINED   2147483750                       # Cumulative time (in ticks) in various power states (Tick)
system.mem_ctrls28.power_state.pwrStateResidencyTicks::UNDEFINED   2147483750                       # Cumulative time (in ticks) in various power states (Tick)
system.mem_ctrls29.power_state.pwrStateResidencyTicks::UNDEFINED   2147483750                       # Cumulative time (in ticks) in various power states (Tick)
system.mem_ctrls3.power_state.pwrStateResidencyTicks::UNDEFINED   2147483750                       # Cumulative time (in ticks) in various power states (Tick)
system.mem_ctrls30.power_state.pwrStateResidencyTicks::UNDEFINED   2147483750                       # Cumulative time (in ticks) in various power states (Tick)
system.mem_ctrls31.power_state.pwrStateResidencyTicks::UNDEFINED   2147483750                       # Cumulative time (in ticks) in various power states (Tick)
system.mem_ctrls32.power_state.pwrStateResidencyTicks::UNDEFINED   2147483750                       # Cumulative time (in ticks) in various power states (Tick)
system.mem_ctrls33.power_state.pwrStateResidencyTicks::UNDEFINED   2147483750                       # Cumulative time (in ticks) in various power states (Tick)
system.mem_ctrls34.power_state.pwrStateResidencyTicks::UNDEFINED   2147483750                       # Cumulative time (in ticks) in various power states (Tick)
system.mem_ctrls35.power_state.pwrStateResidencyTicks::UNDEFINED   2147483750                       # Cumulative time (in ticks) in various power states (Tick)
system.mem_ctrls36.power_state.pwrStateResidencyTicks::UNDEFINED   2147483750                       # Cumulative time (in ticks) in various power states (Tick)
system.mem_ctrls37.power_state.pwrStateResidencyTicks::UNDEFINED   2147483750                       # Cumulative time (in ticks) in various power states (Tick)
system.mem_ctrls38.power_state.pwrStateResidencyTicks::UNDEFINED   2147483750                       # Cumulative time (in ticks) in various power states (Tick)
system.mem_ctrls39.power_state.pwrStateResidencyTicks::UNDEFINED   2147483750                       # Cumulative time (in ticks) in various power states (Tick)
system.mem_ctrls4.power_state.pwrStateResidencyTicks::UNDEFINED   2147483750                       # Cumulative time (in ticks) in various power states (Tick)
system.mem_ctrls40.power_state.pwrStateResidencyTicks::UNDEFINED   2147483750                       # Cumulative time (in ticks) in various power states (Tick)
system.mem_ctrls41.power_state.pwrStateResidencyTicks::UNDEFINED   2147483750                       # Cumulative time (in ticks) in various power states (Tick)
system.mem_ctrls42.power_state.pwrStateResidencyTicks::UNDEFINED   2147483750                       # Cumulative time (in ticks) in various power states (Tick)
system.mem_ctrls43.power_state.pwrStateResidencyTicks::UNDEFINED   2147483750                       # Cumulative time (in ticks) in various power states (Tick)
system.mem_ctrls44.power_state.pwrStateResidencyTicks::UNDEFINED   2147483750                       # Cumulative time (in ticks) in various power states (Tick)
system.mem_ctrls45.power_state.pwrStateResidencyTicks::UNDEFINED   2147483750                       # Cumulative time (in ticks) in various power states (Tick)
system.mem_ctrls46.power_state.pwrStateResidencyTicks::UNDEFINED   2147483750                       # Cumulative time (in ticks) in various power states (Tick)
system.mem_ctrls47.power_state.pwrStateResidencyTicks::UNDEFINED   2147483750                       # Cumulative time (in ticks) in various power states (Tick)
system.mem_ctrls48.power_state.pwrStateResidencyTicks::UNDEFINED   2147483750                       # Cumulative time (in ticks) in various power states (Tick)
system.mem_ctrls49.power_state.pwrStateResidencyTicks::UNDEFINED   2147483750                       # Cumulative time (in ticks) in various power states (Tick)
system.mem_ctrls5.power_state.pwrStateResidencyTicks::UNDEFINED   2147483750                       # Cumulative time (in ticks) in various power states (Tick)
system.mem_ctrls50.power_state.pwrStateResidencyTicks::UNDEFINED   2147483750                       # Cumulative time (in ticks) in various power states (Tick)
system.mem_ctrls51.power_state.pwrStateResidencyTicks::UNDEFINED   2147483750                       # Cumulative time (in ticks) in various power states (Tick)
system.mem_ctrls52.power_state.pwrStateResidencyTicks::UNDEFINED   2147483750                       # Cumulative time (in ticks) in various power states (Tick)
system.mem_ctrls53.power_state.pwrStateResidencyTicks::UNDEFINED   2147483750                       # Cumulative time (in ticks) in various power states (Tick)
system.mem_ctrls54.power_state.pwrStateResidencyTicks::UNDEFINED   2147483750                       # Cumulative time (in ticks) in various power states (Tick)
system.mem_ctrls55.power_state.pwrStateResidencyTicks::UNDEFINED   2147483750                       # Cumulative time (in ticks) in various power states (Tick)
system.mem_ctrls56.power_state.pwrStateResidencyTicks::UNDEFINED   2147483750                       # Cumulative time (in ticks) in various power states (Tick)
system.mem_ctrls57.power_state.pwrStateResidencyTicks::UNDEFINED   2147483750                       # Cumulative time (in ticks) in various power states (Tick)
system.mem_ctrls58.power_state.pwrStateResidencyTicks::UNDEFINED   2147483750                       # Cumulative time (in ticks) in various power states (Tick)
system.mem_ctrls59.power_state.pwrStateResidencyTicks::UNDEFINED   2147483750                       # Cumulative time (in ticks) in various power states (Tick)
system.mem_ctrls6.power_state.pwrStateResidencyTicks::UNDEFINED   2147483750                       # Cumulative time (in ticks) in various power states (Tick)
system.mem_ctrls60.power_state.pwrStateResidencyTicks::UNDEFINED   2147483750                       # Cumulative time (in ticks) in various power states (Tick)
system.mem_ctrls61.power_state.pwrStateResidencyTicks::UNDEFINED   2147483750                       # Cumulative time (in ticks) in various power states (Tick)
system.mem_ctrls62.power_state.pwrStateResidencyTicks::UNDEFINED   2147483750                       # Cumulative time (in ticks) in various power states (Tick)
system.mem_ctrls63.power_state.pwrStateResidencyTicks::UNDEFINED   2147483750                       # Cumulative time (in ticks) in various power states (Tick)
system.mem_ctrls7.power_state.pwrStateResidencyTicks::UNDEFINED   2147483750                       # Cumulative time (in ticks) in various power states (Tick)
system.mem_ctrls8.power_state.pwrStateResidencyTicks::UNDEFINED   2147483750                       # Cumulative time (in ticks) in various power states (Tick)
system.mem_ctrls9.power_state.pwrStateResidencyTicks::UNDEFINED   2147483750                       # Cumulative time (in ticks) in various power states (Tick)
system.ruby.m_outstandReqHistSeqr::bucket_size            1                       (Unspecified)
system.ruby.m_outstandReqHistSeqr::max_bucket            9                       (Unspecified)
system.ruby.m_outstandReqHistSeqr::samples    104359169                       (Unspecified)
system.ruby.m_outstandReqHistSeqr::mean             1                       (Unspecified)
system.ruby.m_outstandReqHistSeqr::gmean            1                       (Unspecified)
system.ruby.m_outstandReqHistSeqr        |           0      0.00%      0.00% |   104359169    100.00%    100.00% |           0      0.00%    100.00% |           0      0.00%    100.00% |           0      0.00%    100.00% |           0      0.00%    100.00% |           0      0.00%    100.00% |           0      0.00%    100.00% |           0      0.00%    100.00% |           0      0.00%    100.00% (Unspecified)
system.ruby.m_outstandReqHistSeqr::total    104359169                       (Unspecified)
system.ruby.m_latencyHistSeqr::bucket_size            1                       (Unspecified)
system.ruby.m_latencyHistSeqr::max_bucket            9                       (Unspecified)
system.ruby.m_latencyHistSeqr::samples      104359154                       (Unspecified)
system.ruby.m_latencyHistSeqr::mean                 1                       (Unspecified)
system.ruby.m_latencyHistSeqr::gmean                1                       (Unspecified)
system.ruby.m_latencyHistSeqr            |           0      0.00%      0.00% |   104359154    100.00%    100.00% |           0      0.00%    100.00% |           0      0.00%    100.00% |           0      0.00%    100.00% |           0      0.00%    100.00% |           0      0.00%    100.00% |           0      0.00%    100.00% |           0      0.00%    100.00% |           0      0.00%    100.00% (Unspecified)
system.ruby.m_latencyHistSeqr::total        104359154                       (Unspecified)
system.ruby.m_hitLatencyHistSeqr::bucket_size            1                       (Unspecified)
system.ruby.m_hitLatencyHistSeqr::max_bucket            9                       (Unspecified)
system.ruby.m_hitLatencyHistSeqr::samples    104359154                       (Unspecified)
system.ruby.m_hitLatencyHistSeqr::mean              1                       (Unspecified)
system.ruby.m_hitLatencyHistSeqr::gmean             1                       (Unspecified)
system.ruby.m_hitLatencyHistSeqr         |           0      0.00%      0.00% |   104359154    100.00%    100.00% |           0      0.00%    100.00% |           0      0.00%    100.00% |           0      0.00%    100.00% |           0      0.00%    100.00% |           0      0.00%    100.00% |           0      0.00%    100.00% |           0      0.00%    100.00% |           0      0.00%    100.00% (Unspecified)
system.ruby.m_hitLatencyHistSeqr::total     104359154                       (Unspecified)
system.ruby.Directory_Controller.Receive_Request |      542814      1.56%      1.56% |      543692      1.56%      3.12% |      543469      1.56%      4.69% |      544571      1.57%      6.25% |      543153      1.56%      7.81% |      543847      1.56%      9.38% |      541398      1.56%     10.93% |      543922      1.56%     12.50% |      543831      1.56%     14.06% |      543363      1.56%     15.62% |      543666      1.56%     17.19% |      544916      1.57%     18.75% |      543278      1.56%     20.31% |      543035      1.56%     21.87% |      543159      1.56%     23.44% |      543731      1.56%     25.00% |      542832      1.56%     26.56% |      544749      1.57%     28.13% |      544381      1.57%     29.69% |      543250      1.56%     31.25% |      543702      1.56%     32.82% |      542952      1.56%     34.38% |      543822      1.56%     35.94% |      543088      1.56%     37.50% |      542346      1.56%     39.06% |      542172      1.56%     40.62% |      544124      1.56%     42.18% |      542229      1.56%     43.74% |      544423      1.57%     45.31% |      542509      1.56%     46.87% |      545262      1.57%     48.43% |      542407      1.56%     49.99% |      543772      1.56%     51.56% |      543684      1.56%     53.12% |      544242      1.56%     54.69% |      544475      1.57%     56.25% |      543500      1.56%     57.81% |      544112      1.56%     59.38% |      542042      1.56%     60.94% |      543857      1.56%     62.50% |      543393      1.56%     64.06% |      542679      1.56%     65.62% |      544315      1.56%     67.19% |      544558      1.57%     68.75% |      543961      1.56%     70.32% |      543563      1.56%     71.88% |      543023      1.56%     73.44% |      543411      1.56%     75.00% |      543173      1.56%     76.56% |      544573      1.57%     78.13% |      544224      1.56%     79.69% |      543403      1.56%     81.26% |      543833      1.56%     82.82% |      543438      1.56%     84.38% |      542785      1.56%     85.94% |      542736      1.56%     87.50% |      543473      1.56%     89.06% |      542345      1.56%     90.62% |      543491      1.56%     92.19% |      542973      1.56%     93.75% |      543741      1.56%     95.31% |      543576      1.56%     96.87% |      543925      1.56%     98.44% |      543898      1.56%    100.00% (Unspecified)
system.ruby.Directory_Controller.Receive_Request::total     34784267                       (Unspecified)
system.ruby.Directory_Controller.Receive_Forward |      544692      1.57%      1.57% |      543107      1.56%      3.13% |      544257      1.56%      4.69% |      543856      1.56%      6.25% |      543396      1.56%      7.82% |      542359      1.56%      9.38% |      542786      1.56%     10.94% |      543406      1.56%     12.50% |      544718      1.57%     14.06% |      543411      1.56%     15.63% |      544690      1.57%     17.19% |      543033      1.56%     18.75% |      542074      1.56%     20.31% |      545348      1.57%     21.88% |      543138      1.56%     23.44% |      543795      1.56%     25.00% |      544560      1.57%     26.57% |      543092      1.56%     28.13% |      542770      1.56%     29.69% |      543788      1.56%     31.25% |      544151      1.56%     32.82% |      543939      1.56%     34.38% |      542075      1.56%     35.94% |      543656      1.56%     37.50% |      543665      1.56%     39.07% |      543503      1.56%     40.63% |      542811      1.56%     42.19% |      542672      1.56%     43.75% |      543170      1.56%     45.31% |      542612      1.56%     46.87% |      543636      1.56%     48.43% |      543969      1.56%     50.00% |      543473      1.56%     51.56% |      543417      1.56%     53.12% |      544120      1.56%     54.68% |      541870      1.56%     56.24% |      542834      1.56%     57.80% |      545083      1.57%     59.37% |      544067      1.56%     60.93% |      543463      1.56%     62.50% |      545013      1.57%     64.06% |      543778      1.56%     65.63% |      544197      1.56%     67.19% |      542972      1.56%     68.75% |      542782      1.56%     70.31% |      544544      1.57%     71.88% |      542990      1.56%     73.44% |      542470      1.56%     75.00% |      543254      1.56%     76.56% |      543801      1.56%     78.12% |      543326      1.56%     79.68% |      544655      1.57%     81.25% |      542980      1.56%     82.81% |      543347      1.56%     84.37% |      542920      1.56%     85.93% |      543067      1.56%     87.49% |      543825      1.56%     89.06% |      542211      1.56%     90.62% |      544987      1.57%     92.18% |      543159      1.56%     93.74% |      544196      1.56%     95.31% |      545364      1.57%     96.88% |      544397      1.56%     98.44% |      542562      1.56%    100.00% (Unspecified)
system.ruby.Directory_Controller.Receive_Forward::total     34787259                       (Unspecified)
system.ruby.Directory_Controller.Receive_Response |      191372      1.56%      1.56% |      191682      1.57%      3.13% |      190496      1.56%      4.69% |      190426      1.56%      6.24% |      190904      1.56%      7.80% |      191017      1.56%      9.36% |      190602      1.56%     10.92% |      191351      1.56%     12.49% |      191114      1.56%     14.05% |      191181      1.56%     15.61% |      190735      1.56%     17.17% |      191808      1.57%     18.74% |      191688      1.57%     20.30% |      191253      1.56%     21.87% |      191555      1.57%     23.43% |      191259      1.56%     24.99% |      190937      1.56%     26.56% |      191359      1.56%     28.12% |      191534      1.57%     29.68% |      190782      1.56%     31.24% |      191507      1.57%     32.81% |      190535      1.56%     34.37% |      191794      1.57%     35.93% |      191033      1.56%     37.49% |      191316      1.56%     39.06% |      191677      1.57%     40.62% |      191563      1.57%     42.19% |      190866      1.56%     43.75% |      190737      1.56%     45.31% |      191393      1.56%     46.87% |      190978      1.56%     48.43% |      190798      1.56%     49.99% |      191324      1.56%     51.56% |      191079      1.56%     53.12% |      191591      1.57%     54.68% |      190830      1.56%     56.24% |      191241      1.56%     57.81% |      191616      1.57%     59.37% |      190993      1.56%     60.93% |      191255      1.56%     62.50% |      191086      1.56%     64.06% |      191087      1.56%     65.62% |      192045      1.57%     67.19% |      191686      1.57%     68.75% |      191434      1.56%     70.32% |      191549      1.57%     71.88% |      191395      1.56%     73.45% |      190509      1.56%     75.01% |      191327      1.56%     76.57% |      191432      1.56%     78.13% |      190448      1.56%     79.69% |      191000      1.56%     81.25% |      191611      1.57%     82.82% |      191604      1.57%     84.38% |      191211      1.56%     85.95% |      191628      1.57%     87.51% |      190644      1.56%     89.07% |      191468      1.56%     90.63% |      191501      1.57%     92.20% |      191060      1.56%     93.76% |      190585      1.56%     95.32% |      190514      1.56%     96.88% |      190818      1.56%     98.43% |      191541      1.57%    100.00% (Unspecified)
system.ruby.Directory_Controller.Receive_Response::total     12236364                       (Unspecified)
system.ruby.Directory_Controller.I.Receive_Request |      542814      1.56%      1.56% |      543692      1.56%      3.12% |      543469      1.56%      4.69% |      544571      1.57%      6.25% |      543153      1.56%      7.81% |      543847      1.56%      9.38% |      541398      1.56%     10.93% |      543922      1.56%     12.50% |      543831      1.56%     14.06% |      543363      1.56%     15.62% |      543666      1.56%     17.19% |      544916      1.57%     18.75% |      543278      1.56%     20.31% |      543035      1.56%     21.87% |      543159      1.56%     23.44% |      543731      1.56%     25.00% |      542832      1.56%     26.56% |      544749      1.57%     28.13% |      544381      1.57%     29.69% |      543250      1.56%     31.25% |      543702      1.56%     32.82% |      542952      1.56%     34.38% |      543822      1.56%     35.94% |      543088      1.56%     37.50% |      542346      1.56%     39.06% |      542172      1.56%     40.62% |      544124      1.56%     42.18% |      542229      1.56%     43.74% |      544423      1.57%     45.31% |      542509      1.56%     46.87% |      545262      1.57%     48.43% |      542407      1.56%     49.99% |      543772      1.56%     51.56% |      543684      1.56%     53.12% |      544242      1.56%     54.69% |      544475      1.57%     56.25% |      543500      1.56%     57.81% |      544112      1.56%     59.38% |      542042      1.56%     60.94% |      543857      1.56%     62.50% |      543393      1.56%     64.06% |      542679      1.56%     65.62% |      544315      1.56%     67.19% |      544558      1.57%     68.75% |      543961      1.56%     70.32% |      543563      1.56%     71.88% |      543023      1.56%     73.44% |      543411      1.56%     75.00% |      543173      1.56%     76.56% |      544573      1.57%     78.13% |      544224      1.56%     79.69% |      543403      1.56%     81.26% |      543833      1.56%     82.82% |      543438      1.56%     84.38% |      542785      1.56%     85.94% |      542736      1.56%     87.50% |      543473      1.56%     89.06% |      542345      1.56%     90.62% |      543491      1.56%     92.19% |      542973      1.56%     93.75% |      543741      1.56%     95.31% |      543576      1.56%     96.87% |      543925      1.56%     98.44% |      543898      1.56%    100.00% (Unspecified)
system.ruby.Directory_Controller.I.Receive_Request::total     34784267                       (Unspecified)
system.ruby.Directory_Controller.I.Receive_Forward |      544692      1.57%      1.57% |      543107      1.56%      3.13% |      544257      1.56%      4.69% |      543856      1.56%      6.25% |      543396      1.56%      7.82% |      542359      1.56%      9.38% |      542786      1.56%     10.94% |      543406      1.56%     12.50% |      544718      1.57%     14.06% |      543411      1.56%     15.63% |      544690      1.57%     17.19% |      543033      1.56%     18.75% |      542074      1.56%     20.31% |      545348      1.57%     21.88% |      543138      1.56%     23.44% |      543795      1.56%     25.00% |      544560      1.57%     26.57% |      543092      1.56%     28.13% |      542770      1.56%     29.69% |      543788      1.56%     31.25% |      544151      1.56%     32.82% |      543939      1.56%     34.38% |      542075      1.56%     35.94% |      543656      1.56%     37.50% |      543665      1.56%     39.07% |      543503      1.56%     40.63% |      542811      1.56%     42.19% |      542672      1.56%     43.75% |      543170      1.56%     45.31% |      542612      1.56%     46.87% |      543636      1.56%     48.43% |      543969      1.56%     50.00% |      543473      1.56%     51.56% |      543417      1.56%     53.12% |      544120      1.56%     54.68% |      541870      1.56%     56.24% |      542834      1.56%     57.80% |      545083      1.57%     59.37% |      544067      1.56%     60.93% |      543463      1.56%     62.50% |      545013      1.57%     64.06% |      543778      1.56%     65.63% |      544197      1.56%     67.19% |      542972      1.56%     68.75% |      542782      1.56%     70.31% |      544544      1.57%     71.88% |      542990      1.56%     73.44% |      542470      1.56%     75.00% |      543254      1.56%     76.56% |      543801      1.56%     78.12% |      543326      1.56%     79.68% |      544655      1.57%     81.25% |      542980      1.56%     82.81% |      543347      1.56%     84.37% |      542920      1.56%     85.93% |      543067      1.56%     87.49% |      543825      1.56%     89.06% |      542211      1.56%     90.62% |      544987      1.57%     92.18% |      543159      1.56%     93.74% |      544196      1.56%     95.31% |      545364      1.57%     96.88% |      544397      1.56%     98.44% |      542562      1.56%    100.00% (Unspecified)
system.ruby.Directory_Controller.I.Receive_Forward::total     34787259                       (Unspecified)
system.ruby.Directory_Controller.I.Receive_Response |      191372      1.56%      1.56% |      191682      1.57%      3.13% |      190496      1.56%      4.69% |      190426      1.56%      6.24% |      190904      1.56%      7.80% |      191017      1.56%      9.36% |      190602      1.56%     10.92% |      191351      1.56%     12.49% |      191114      1.56%     14.05% |      191181      1.56%     15.61% |      190735      1.56%     17.17% |      191808      1.57%     18.74% |      191688      1.57%     20.30% |      191253      1.56%     21.87% |      191555      1.57%     23.43% |      191259      1.56%     24.99% |      190937      1.56%     26.56% |      191359      1.56%     28.12% |      191534      1.57%     29.68% |      190782      1.56%     31.24% |      191507      1.57%     32.81% |      190535      1.56%     34.37% |      191794      1.57%     35.93% |      191033      1.56%     37.49% |      191316      1.56%     39.06% |      191677      1.57%     40.62% |      191563      1.57%     42.19% |      190866      1.56%     43.75% |      190737      1.56%     45.31% |      191393      1.56%     46.87% |      190978      1.56%     48.43% |      190798      1.56%     49.99% |      191324      1.56%     51.56% |      191079      1.56%     53.12% |      191591      1.57%     54.68% |      190830      1.56%     56.24% |      191241      1.56%     57.81% |      191616      1.57%     59.37% |      190993      1.56%     60.93% |      191255      1.56%     62.50% |      191086      1.56%     64.06% |      191087      1.56%     65.62% |      192045      1.57%     67.19% |      191686      1.57%     68.75% |      191434      1.56%     70.32% |      191549      1.57%     71.88% |      191395      1.56%     73.45% |      190509      1.56%     75.01% |      191327      1.56%     76.57% |      191432      1.56%     78.13% |      190448      1.56%     79.69% |      191000      1.56%     81.25% |      191611      1.57%     82.82% |      191604      1.57%     84.38% |      191211      1.56%     85.95% |      191628      1.57%     87.51% |      190644      1.56%     89.07% |      191468      1.56%     90.63% |      191501      1.57%     92.20% |      191060      1.56%     93.76% |      190585      1.56%     95.32% |      190514      1.56%     96.88% |      190818      1.56%     98.43% |      191541      1.57%    100.00% (Unspecified)
system.ruby.Directory_Controller.I.Receive_Response::total     12236364                       (Unspecified)
system.ruby.L1Cache_Controller.Request   |      543532      1.56%      1.56% |      544006      1.56%      3.13% |      542621      1.56%      4.69% |      544543      1.57%      6.25% |      542869      1.56%      7.81% |      544482      1.57%      9.38% |      542615      1.56%     10.94% |      544160      1.56%     12.50% |      543867      1.56%     14.07% |      542712      1.56%     15.63% |      543340      1.56%     17.19% |      543421      1.56%     18.75% |      543178      1.56%     20.31% |      543609      1.56%     21.87% |      544003      1.56%     23.44% |      542132      1.56%     25.00% |      542554      1.56%     26.56% |      544747      1.57%     28.12% |      542970      1.56%     29.68% |      544319      1.56%     31.25% |      543111      1.56%     32.81% |      543032      1.56%     34.37% |      543369      1.56%     35.93% |      543915      1.56%     37.50% |      543587      1.56%     39.06% |      543307      1.56%     40.62% |      544374      1.56%     42.19% |      543119      1.56%     43.75% |      543877      1.56%     45.31% |      544016      1.56%     46.88% |      543665      1.56%     48.44% |      544229      1.56%     50.00% |      543649      1.56%     51.57% |      542618      1.56%     53.13% |      542587      1.56%     54.69% |      542998      1.56%     56.25% |      544092      1.56%     57.81% |      543230      1.56%     59.37% |      542604      1.56%     60.93% |      545210      1.57%     62.50% |      544262      1.56%     64.06% |      543342      1.56%     65.63% |      543177      1.56%     67.19% |      544121      1.56%     68.75% |      543514      1.56%     70.32% |      543932      1.56%     71.88% |      543593      1.56%     73.44% |      543681      1.56%     75.00% |      543223      1.56%     76.57% |      543239      1.56%     78.13% |      543833      1.56%     79.69% |      543611      1.56%     81.25% |      543321      1.56%     82.82% |      543933      1.56%     84.38% |      545058      1.57%     85.95% |      542139      1.56%     87.51% |      543103      1.56%     89.07% |      543126      1.56%     90.63% |      543071      1.56%     92.19% |      543903      1.56%     93.75% |      543720      1.56%     95.32% |      543000      1.56%     96.88% |      543520      1.56%     98.44% |      542729      1.56%    100.00% (Unspecified)
system.ruby.L1Cache_Controller.Request::total     34784420                       (Unspecified)
system.ruby.L1Cache_Controller.Forward   |      542868      1.56%      1.56% |      542873      1.56%      3.12% |      543259      1.56%      4.68% |      542936      1.56%      6.24% |      543862      1.56%      7.81% |      543020      1.56%      9.37% |      543834      1.56%     10.93% |      542594      1.56%     12.49% |      543554      1.56%     14.05% |      542701      1.56%     15.61% |      545040      1.57%     17.18% |      543533      1.56%     18.74% |      543241      1.56%     20.30% |      542509      1.56%     21.86% |      543382      1.56%     23.43% |      544873      1.57%     24.99% |      543449      1.56%     26.55% |      543602      1.56%     28.12% |      542167      1.56%     29.68% |      543986      1.56%     31.24% |      542548      1.56%     32.80% |      544624      1.57%     34.36% |      543996      1.56%     35.93% |      542557      1.56%     37.49% |      542649      1.56%     39.05% |      545550      1.57%     40.62% |      543405      1.56%     42.18% |      543850      1.56%     43.74% |      544401      1.56%     45.31% |      544624      1.57%     46.87% |      543880      1.56%     48.44% |      542465      1.56%     49.99% |      542831      1.56%     51.56% |      543938      1.56%     53.12% |      542944      1.56%     54.68% |      543114      1.56%     56.24% |      543130      1.56%     57.80% |      542605      1.56%     59.36% |      543534      1.56%     60.92% |      543045      1.56%     62.49% |      545523      1.57%     64.05% |      543443      1.56%     65.62% |      542582      1.56%     67.18% |      544070      1.56%     68.74% |      542938      1.56%     70.30% |      544333      1.56%     71.86% |      543280      1.56%     73.43% |      544321      1.56%     74.99% |      543915      1.56%     76.55% |      543962      1.56%     78.12% |      543177      1.56%     79.68% |      544166      1.56%     81.24% |      543263      1.56%     82.81% |      543809      1.56%     84.37% |      543748      1.56%     85.93% |      543207      1.56%     87.49% |      544571      1.57%     89.06% |      542588      1.56%     90.62% |      544979      1.57%     92.19% |      544583      1.57%     93.75% |      543687      1.56%     95.31% |      543679      1.56%     96.88% |      543619      1.56%     98.44% |      542980      1.56%    100.00% (Unspecified)
system.ruby.L1Cache_Controller.Forward::total     34787396                       (Unspecified)
system.ruby.L1Cache_Controller.Response  |      542726      1.56%      1.56% |      543494      1.56%      3.12% |      543572      1.56%      4.69% |      542746      1.56%      6.25% |      544921      1.57%      7.81% |      543093      1.56%      9.37% |      542464      1.56%     10.93% |      543417      1.56%     12.49% |      544311      1.56%     14.06% |      543750      1.56%     15.62% |      543206      1.56%     17.18% |      543086      1.56%     18.74% |      543706      1.56%     20.31% |      543584      1.56%     21.87% |      542650      1.56%     23.43% |      543801      1.56%     24.99% |      544889      1.57%     26.56% |      544931      1.57%     28.13% |      543496      1.56%     29.69% |      543168      1.56%     31.25% |      545089      1.57%     32.82% |      543726      1.56%     34.38% |      543562      1.56%     35.94% |      543759      1.56%     37.51% |      543179      1.56%     39.07% |      542449      1.56%     40.63% |      543424      1.56%     42.19% |      544055      1.56%     43.75% |      543132      1.56%     45.31% |      542789      1.56%     46.87% |      544053      1.56%     48.44% |      543197      1.56%     50.00% |      543424      1.56%     51.56% |      542674      1.56%     53.12% |      543584      1.56%     54.68% |      542709      1.56%     56.24% |      542062      1.56%     57.80% |      543643      1.56%     59.37% |      543888      1.56%     60.93% |      543872      1.56%     62.49% |      543391      1.56%     64.05% |      543219      1.56%     65.62% |      544159      1.56%     67.18% |      544238      1.56%     68.74% |      544553      1.57%     70.31% |      543878      1.56%     71.87% |      543845      1.56%     73.44% |      542354      1.56%     75.00% |      543934      1.56%     76.56% |      544840      1.57%     78.13% |      543844      1.56%     79.69% |      542909      1.56%     81.25% |      543969      1.56%     82.81% |      542723      1.56%     84.37% |      543783      1.56%     85.94% |      543941      1.56%     87.50% |      543750      1.56%     89.06% |      543563      1.56%     90.63% |      543995      1.56%     92.19% |      543051      1.56%     93.75% |      542464      1.56%     95.31% |      544273      1.56%     96.87% |      543729      1.56%     98.44% |      543652      1.56%    100.00% (Unspecified)
system.ruby.L1Cache_Controller.Response::total     34787338                       (Unspecified)
system.ruby.L1Cache_Controller.I.Request |      543532      1.56%      1.56% |      544006      1.56%      3.13% |      542621      1.56%      4.69% |      544543      1.57%      6.25% |      542869      1.56%      7.81% |      544482      1.57%      9.38% |      542615      1.56%     10.94% |      544160      1.56%     12.50% |      543867      1.56%     14.07% |      542712      1.56%     15.63% |      543340      1.56%     17.19% |      543421      1.56%     18.75% |      543178      1.56%     20.31% |      543609      1.56%     21.87% |      544003      1.56%     23.44% |      542132      1.56%     25.00% |      542554      1.56%     26.56% |      544747      1.57%     28.12% |      542970      1.56%     29.68% |      544319      1.56%     31.25% |      543111      1.56%     32.81% |      543032      1.56%     34.37% |      543369      1.56%     35.93% |      543915      1.56%     37.50% |      543587      1.56%     39.06% |      543307      1.56%     40.62% |      544374      1.56%     42.19% |      543119      1.56%     43.75% |      543877      1.56%     45.31% |      544016      1.56%     46.88% |      543665      1.56%     48.44% |      544229      1.56%     50.00% |      543649      1.56%     51.57% |      542618      1.56%     53.13% |      542587      1.56%     54.69% |      542998      1.56%     56.25% |      544092      1.56%     57.81% |      543230      1.56%     59.37% |      542604      1.56%     60.93% |      545210      1.57%     62.50% |      544262      1.56%     64.06% |      543342      1.56%     65.63% |      543177      1.56%     67.19% |      544121      1.56%     68.75% |      543514      1.56%     70.32% |      543932      1.56%     71.88% |      543593      1.56%     73.44% |      543681      1.56%     75.00% |      543223      1.56%     76.57% |      543239      1.56%     78.13% |      543833      1.56%     79.69% |      543611      1.56%     81.25% |      543321      1.56%     82.82% |      543933      1.56%     84.38% |      545058      1.57%     85.95% |      542139      1.56%     87.51% |      543103      1.56%     89.07% |      543126      1.56%     90.63% |      543071      1.56%     92.19% |      543903      1.56%     93.75% |      543720      1.56%     95.32% |      543000      1.56%     96.88% |      543520      1.56%     98.44% |      542729      1.56%    100.00% (Unspecified)
system.ruby.L1Cache_Controller.I.Request::total     34784420                       (Unspecified)
system.ruby.L1Cache_Controller.I.Forward |      542868      1.56%      1.56% |      542873      1.56%      3.12% |      543259      1.56%      4.68% |      542936      1.56%      6.24% |      543862      1.56%      7.81% |      543020      1.56%      9.37% |      543834      1.56%     10.93% |      542594      1.56%     12.49% |      543554      1.56%     14.05% |      542701      1.56%     15.61% |      545040      1.57%     17.18% |      543533      1.56%     18.74% |      543241      1.56%     20.30% |      542509      1.56%     21.86% |      543382      1.56%     23.43% |      544873      1.57%     24.99% |      543449      1.56%     26.55% |      543602      1.56%     28.12% |      542167      1.56%     29.68% |      543986      1.56%     31.24% |      542548      1.56%     32.80% |      544624      1.57%     34.36% |      543996      1.56%     35.93% |      542557      1.56%     37.49% |      542649      1.56%     39.05% |      545550      1.57%     40.62% |      543405      1.56%     42.18% |      543850      1.56%     43.74% |      544401      1.56%     45.31% |      544624      1.57%     46.87% |      543880      1.56%     48.44% |      542465      1.56%     49.99% |      542831      1.56%     51.56% |      543938      1.56%     53.12% |      542944      1.56%     54.68% |      543114      1.56%     56.24% |      543130      1.56%     57.80% |      542605      1.56%     59.36% |      543534      1.56%     60.92% |      543045      1.56%     62.49% |      545523      1.57%     64.05% |      543443      1.56%     65.62% |      542582      1.56%     67.18% |      544070      1.56%     68.74% |      542938      1.56%     70.30% |      544333      1.56%     71.86% |      543280      1.56%     73.43% |      544321      1.56%     74.99% |      543915      1.56%     76.55% |      543962      1.56%     78.12% |      543177      1.56%     79.68% |      544166      1.56%     81.24% |      543263      1.56%     82.81% |      543809      1.56%     84.37% |      543748      1.56%     85.93% |      543207      1.56%     87.49% |      544571      1.57%     89.06% |      542588      1.56%     90.62% |      544979      1.57%     92.19% |      544583      1.57%     93.75% |      543687      1.56%     95.31% |      543679      1.56%     96.88% |      543619      1.56%     98.44% |      542980      1.56%    100.00% (Unspecified)
system.ruby.L1Cache_Controller.I.Forward::total     34787396                       (Unspecified)
system.ruby.L1Cache_Controller.I.Response |      542726      1.56%      1.56% |      543494      1.56%      3.12% |      543572      1.56%      4.69% |      542746      1.56%      6.25% |      544921      1.57%      7.81% |      543093      1.56%      9.37% |      542464      1.56%     10.93% |      543417      1.56%     12.49% |      544311      1.56%     14.06% |      543750      1.56%     15.62% |      543206      1.56%     17.18% |      543086      1.56%     18.74% |      543706      1.56%     20.31% |      543584      1.56%     21.87% |      542650      1.56%     23.43% |      543801      1.56%     24.99% |      544889      1.57%     26.56% |      544931      1.57%     28.13% |      543496      1.56%     29.69% |      543168      1.56%     31.25% |      545089      1.57%     32.82% |      543726      1.56%     34.38% |      543562      1.56%     35.94% |      543759      1.56%     37.51% |      543179      1.56%     39.07% |      542449      1.56%     40.63% |      543424      1.56%     42.19% |      544055      1.56%     43.75% |      543132      1.56%     45.31% |      542789      1.56%     46.87% |      544053      1.56%     48.44% |      543197      1.56%     50.00% |      543424      1.56%     51.56% |      542674      1.56%     53.12% |      543584      1.56%     54.68% |      542709      1.56%     56.24% |      542062      1.56%     57.80% |      543643      1.56%     59.37% |      543888      1.56%     60.93% |      543872      1.56%     62.49% |      543391      1.56%     64.05% |      543219      1.56%     65.62% |      544159      1.56%     67.18% |      544238      1.56%     68.74% |      544553      1.57%     70.31% |      543878      1.56%     71.87% |      543845      1.56%     73.44% |      542354      1.56%     75.00% |      543934      1.56%     76.56% |      544840      1.57%     78.13% |      543844      1.56%     79.69% |      542909      1.56%     81.25% |      543969      1.56%     82.81% |      542723      1.56%     84.37% |      543783      1.56%     85.94% |      543941      1.56%     87.50% |      543750      1.56%     89.06% |      543563      1.56%     90.63% |      543995      1.56%     92.19% |      543051      1.56%     93.75% |      542464      1.56%     95.31% |      544273      1.56%     96.87% |      543729      1.56%     98.44% |      543652      1.56%    100.00% (Unspecified)
system.ruby.L1Cache_Controller.I.Response::total     34787338                       (Unspecified)
system.ruby.RequestType.LD.latency_hist_seqr::bucket_size            1                       (Unspecified)
system.ruby.RequestType.LD.latency_hist_seqr::max_bucket            9                       (Unspecified)
system.ruby.RequestType.LD.latency_hist_seqr::samples     34784420                       (Unspecified)
system.ruby.RequestType.LD.latency_hist_seqr::mean            1                       (Unspecified)
system.ruby.RequestType.LD.latency_hist_seqr::gmean            1                       (Unspecified)
system.ruby.RequestType.LD.latency_hist_seqr |           0      0.00%      0.00% |    34784420    100.00%    100.00% |           0      0.00%    100.00% |           0      0.00%    100.00% |           0      0.00%    100.00% |           0      0.00%    100.00% |           0      0.00%    100.00% |           0      0.00%    100.00% |           0      0.00%    100.00% |           0      0.00%    100.00% (Unspecified)
system.ruby.RequestType.LD.latency_hist_seqr::total     34784420                       (Unspecified)
system.ruby.RequestType.LD.hit_latency_hist_seqr::bucket_size            1                       (Unspecified)
system.ruby.RequestType.LD.hit_latency_hist_seqr::max_bucket            9                       (Unspecified)
system.ruby.RequestType.LD.hit_latency_hist_seqr::samples     34784420                       (Unspecified)
system.ruby.RequestType.LD.hit_latency_hist_seqr::mean            1                       (Unspecified)
system.ruby.RequestType.LD.hit_latency_hist_seqr::gmean            1                       (Unspecified)
system.ruby.RequestType.LD.hit_latency_hist_seqr |           0      0.00%      0.00% |    34784420    100.00%    100.00% |           0      0.00%    100.00% |           0      0.00%    100.00% |           0      0.00%    100.00% |           0      0.00%    100.00% |           0      0.00%    100.00% |           0      0.00%    100.00% |           0      0.00%    100.00% |           0      0.00%    100.00% (Unspecified)
system.ruby.RequestType.LD.hit_latency_hist_seqr::total     34784420                       (Unspecified)
system.ruby.RequestType.ST.latency_hist_seqr::bucket_size            1                       (Unspecified)
system.ruby.RequestType.ST.latency_hist_seqr::max_bucket            9                       (Unspecified)
system.ruby.RequestType.ST.latency_hist_seqr::samples     34787338                       (Unspecified)
system.ruby.RequestType.ST.latency_hist_seqr::mean            1                       (Unspecified)
system.ruby.RequestType.ST.latency_hist_seqr::gmean            1                       (Unspecified)
system.ruby.RequestType.ST.latency_hist_seqr |           0      0.00%      0.00% |    34787338    100.00%    100.00% |           0      0.00%    100.00% |           0      0.00%    100.00% |           0      0.00%    100.00% |           0      0.00%    100.00% |           0      0.00%    100.00% |           0      0.00%    100.00% |           0      0.00%    100.00% |           0      0.00%    100.00% (Unspecified)
system.ruby.RequestType.ST.latency_hist_seqr::total     34787338                       (Unspecified)
system.ruby.RequestType.ST.hit_latency_hist_seqr::bucket_size            1                       (Unspecified)
system.ruby.RequestType.ST.hit_latency_hist_seqr::max_bucket            9                       (Unspecified)
system.ruby.RequestType.ST.hit_latency_hist_seqr::samples     34787338                       (Unspecified)
system.ruby.RequestType.ST.hit_latency_hist_seqr::mean            1                       (Unspecified)
system.ruby.RequestType.ST.hit_latency_hist_seqr::gmean            1                       (Unspecified)
system.ruby.RequestType.ST.hit_latency_hist_seqr |           0      0.00%      0.00% |    34787338    100.00%    100.00% |           0      0.00%    100.00% |           0      0.00%    100.00% |           0      0.00%    100.00% |           0      0.00%    100.00% |           0      0.00%    100.00% |           0      0.00%    100.00% |           0      0.00%    100.00% |           0      0.00%    100.00% (Unspecified)
system.ruby.RequestType.ST.hit_latency_hist_seqr::total     34787338                       (Unspecified)
system.ruby.RequestType.IFETCH.latency_hist_seqr::bucket_size            1                       (Unspecified)
system.ruby.RequestType.IFETCH.latency_hist_seqr::max_bucket            9                       (Unspecified)
system.ruby.RequestType.IFETCH.latency_hist_seqr::samples     34787396                       (Unspecified)
system.ruby.RequestType.IFETCH.latency_hist_seqr::mean            1                       (Unspecified)
system.ruby.RequestType.IFETCH.latency_hist_seqr::gmean            1                       (Unspecified)
system.ruby.RequestType.IFETCH.latency_hist_seqr |           0      0.00%      0.00% |    34787396    100.00%    100.00% |           0      0.00%    100.00% |           0      0.00%    100.00% |           0      0.00%    100.00% |           0      0.00%    100.00% |           0      0.00%    100.00% |           0      0.00%    100.00% |           0      0.00%    100.00% |           0      0.00%    100.00% (Unspecified)
system.ruby.RequestType.IFETCH.latency_hist_seqr::total     34787396                       (Unspecified)
system.ruby.RequestType.IFETCH.hit_latency_hist_seqr::bucket_size            1                       (Unspecified)
system.ruby.RequestType.IFETCH.hit_latency_hist_seqr::max_bucket            9                       (Unspecified)
system.ruby.RequestType.IFETCH.hit_latency_hist_seqr::samples     34787396                       (Unspecified)
system.ruby.RequestType.IFETCH.hit_latency_hist_seqr::mean            1                       (Unspecified)
system.ruby.RequestType.IFETCH.hit_latency_hist_seqr::gmean            1                       (Unspecified)
system.ruby.RequestType.IFETCH.hit_latency_hist_seqr |           0      0.00%      0.00% |    34787396    100.00%    100.00% |           0      0.00%    100.00% |           0      0.00%    100.00% |           0      0.00%    100.00% |           0      0.00%    100.00% |           0      0.00%    100.00% |           0      0.00%    100.00% |           0      0.00%    100.00% |           0      0.00%    100.00% (Unspecified)
system.ruby.RequestType.IFETCH.hit_latency_hist_seqr::total     34787396                       (Unspecified)
system.ruby.clk_domain.clock                      250                       # Clock period in ticks (Tick)
system.ruby.dir_cntrl0.forwardToDir.m_msg_count       544692                       # Number of messages passed the buffer (Count)
system.ruby.dir_cntrl0.forwardToDir.m_buf_msgs     0.063410                       # Average number of messages in buffer ((Count/Tick))
system.ruby.dir_cntrl0.power_state.pwrStateResidencyTicks::UNDEFINED   2147483750                       # Cumulative time (in ticks) in various power states (Tick)
system.ruby.dir_cntrl0.requestToDir.m_msg_count       542814                       # Number of messages passed the buffer (Count)
system.ruby.dir_cntrl0.requestToDir.m_buf_msgs     0.063192                       # Average number of messages in buffer ((Count/Tick))
system.ruby.dir_cntrl0.responseToDir.m_msg_count       191372                       # Number of messages passed the buffer (Count)
system.ruby.dir_cntrl0.responseToDir.m_buf_msgs     0.022279                       # Average number of messages in buffer ((Count/Tick))
system.ruby.dir_cntrl1.forwardToDir.m_msg_count       543107                       # Number of messages passed the buffer (Count)
system.ruby.dir_cntrl1.forwardToDir.m_buf_msgs     0.063226                       # Average number of messages in buffer ((Count/Tick))
system.ruby.dir_cntrl1.power_state.pwrStateResidencyTicks::UNDEFINED   2147483750                       # Cumulative time (in ticks) in various power states (Tick)
system.ruby.dir_cntrl1.requestToDir.m_msg_count       543692                       # Number of messages passed the buffer (Count)
system.ruby.dir_cntrl1.requestToDir.m_buf_msgs     0.063294                       # Average number of messages in buffer ((Count/Tick))
system.ruby.dir_cntrl1.responseToDir.m_msg_count       191682                       # Number of messages passed the buffer (Count)
system.ruby.dir_cntrl1.responseToDir.m_buf_msgs     0.022315                       # Average number of messages in buffer ((Count/Tick))
system.ruby.dir_cntrl10.forwardToDir.m_msg_count       544690                       # Number of messages passed the buffer (Count)
system.ruby.dir_cntrl10.forwardToDir.m_buf_msgs     0.063410                       # Average number of messages in buffer ((Count/Tick))
system.ruby.dir_cntrl10.power_state.pwrStateResidencyTicks::UNDEFINED   2147483750                       # Cumulative time (in ticks) in various power states (Tick)
system.ruby.dir_cntrl10.requestToDir.m_msg_count       543666                       # Number of messages passed the buffer (Count)
system.ruby.dir_cntrl10.requestToDir.m_buf_msgs     0.063291                       # Average number of messages in buffer ((Count/Tick))
system.ruby.dir_cntrl10.responseToDir.m_msg_count       190735                       # Number of messages passed the buffer (Count)
system.ruby.dir_cntrl10.responseToDir.m_buf_msgs     0.022204                       # Average number of messages in buffer ((Count/Tick))
system.ruby.dir_cntrl11.forwardToDir.m_msg_count       543033                       # Number of messages passed the buffer (Count)
system.ruby.dir_cntrl11.forwardToDir.m_buf_msgs     0.063217                       # Average number of messages in buffer ((Count/Tick))
system.ruby.dir_cntrl11.power_state.pwrStateResidencyTicks::UNDEFINED   2147483750                       # Cumulative time (in ticks) in various power states (Tick)
system.ruby.dir_cntrl11.requestToDir.m_msg_count       544916                       # Number of messages passed the buffer (Count)
system.ruby.dir_cntrl11.requestToDir.m_buf_msgs     0.063437                       # Average number of messages in buffer ((Count/Tick))
system.ruby.dir_cntrl11.responseToDir.m_msg_count       191808                       # Number of messages passed the buffer (Count)
system.ruby.dir_cntrl11.responseToDir.m_buf_msgs     0.022329                       # Average number of messages in buffer ((Count/Tick))
system.ruby.dir_cntrl12.forwardToDir.m_msg_count       542074                       # Number of messages passed the buffer (Count)
system.ruby.dir_cntrl12.forwardToDir.m_buf_msgs     0.063106                       # Average number of messages in buffer ((Count/Tick))
system.ruby.dir_cntrl12.power_state.pwrStateResidencyTicks::UNDEFINED   2147483750                       # Cumulative time (in ticks) in various power states (Tick)
system.ruby.dir_cntrl12.requestToDir.m_msg_count       543278                       # Number of messages passed the buffer (Count)
system.ruby.dir_cntrl12.requestToDir.m_buf_msgs     0.063246                       # Average number of messages in buffer ((Count/Tick))
system.ruby.dir_cntrl12.responseToDir.m_msg_count       191688                       # Number of messages passed the buffer (Count)
system.ruby.dir_cntrl12.responseToDir.m_buf_msgs     0.022315                       # Average number of messages in buffer ((Count/Tick))
system.ruby.dir_cntrl13.forwardToDir.m_msg_count       545348                       # Number of messages passed the buffer (Count)
system.ruby.dir_cntrl13.forwardToDir.m_buf_msgs     0.063487                       # Average number of messages in buffer ((Count/Tick))
system.ruby.dir_cntrl13.power_state.pwrStateResidencyTicks::UNDEFINED   2147483750                       # Cumulative time (in ticks) in various power states (Tick)
system.ruby.dir_cntrl13.requestToDir.m_msg_count       543035                       # Number of messages passed the buffer (Count)
system.ruby.dir_cntrl13.requestToDir.m_buf_msgs     0.063218                       # Average number of messages in buffer ((Count/Tick))
system.ruby.dir_cntrl13.responseToDir.m_msg_count       191253                       # Number of messages passed the buffer (Count)
system.ruby.dir_cntrl13.responseToDir.m_buf_msgs     0.022265                       # Average number of messages in buffer ((Count/Tick))
system.ruby.dir_cntrl14.forwardToDir.m_msg_count       543138                       # Number of messages passed the buffer (Count)
system.ruby.dir_cntrl14.forwardToDir.m_buf_msgs     0.063230                       # Average number of messages in buffer ((Count/Tick))
system.ruby.dir_cntrl14.power_state.pwrStateResidencyTicks::UNDEFINED   2147483750                       # Cumulative time (in ticks) in various power states (Tick)
system.ruby.dir_cntrl14.requestToDir.m_msg_count       543159                       # Number of messages passed the buffer (Count)
system.ruby.dir_cntrl14.requestToDir.m_buf_msgs     0.063232                       # Average number of messages in buffer ((Count/Tick))
system.ruby.dir_cntrl14.responseToDir.m_msg_count       191555                       # Number of messages passed the buffer (Count)
system.ruby.dir_cntrl14.responseToDir.m_buf_msgs     0.022300                       # Average number of messages in buffer ((Count/Tick))
system.ruby.dir_cntrl15.forwardToDir.m_msg_count       543795                       # Number of messages passed the buffer (Count)
system.ruby.dir_cntrl15.forwardToDir.m_buf_msgs     0.063306                       # Average number of messages in buffer ((Count/Tick))
system.ruby.dir_cntrl15.power_state.pwrStateResidencyTicks::UNDEFINED   2147483750                       # Cumulative time (in ticks) in various power states (Tick)
system.ruby.dir_cntrl15.requestToDir.m_msg_count       543731                       # Number of messages passed the buffer (Count)
system.ruby.dir_cntrl15.requestToDir.m_buf_msgs     0.063299                       # Average number of messages in buffer ((Count/Tick))
system.ruby.dir_cntrl15.responseToDir.m_msg_count       191259                       # Number of messages passed the buffer (Count)
system.ruby.dir_cntrl15.responseToDir.m_buf_msgs     0.022265                       # Average number of messages in buffer ((Count/Tick))
system.ruby.dir_cntrl16.forwardToDir.m_msg_count       544560                       # Number of messages passed the buffer (Count)
system.ruby.dir_cntrl16.forwardToDir.m_buf_msgs     0.063395                       # Average number of messages in buffer ((Count/Tick))
system.ruby.dir_cntrl16.power_state.pwrStateResidencyTicks::UNDEFINED   2147483750                       # Cumulative time (in ticks) in various power states (Tick)
system.ruby.dir_cntrl16.requestToDir.m_msg_count       542832                       # Number of messages passed the buffer (Count)
system.ruby.dir_cntrl16.requestToDir.m_buf_msgs     0.063194                       # Average number of messages in buffer ((Count/Tick))
system.ruby.dir_cntrl16.responseToDir.m_msg_count       190937                       # Number of messages passed the buffer (Count)
system.ruby.dir_cntrl16.responseToDir.m_buf_msgs     0.022228                       # Average number of messages in buffer ((Count/Tick))
system.ruby.dir_cntrl17.forwardToDir.m_msg_count       543092                       # Number of messages passed the buffer (Count)
system.ruby.dir_cntrl17.forwardToDir.m_buf_msgs     0.063224                       # Average number of messages in buffer ((Count/Tick))
system.ruby.dir_cntrl17.power_state.pwrStateResidencyTicks::UNDEFINED   2147483750                       # Cumulative time (in ticks) in various power states (Tick)
system.ruby.dir_cntrl17.requestToDir.m_msg_count       544749                       # Number of messages passed the buffer (Count)
system.ruby.dir_cntrl17.requestToDir.m_buf_msgs     0.063417                       # Average number of messages in buffer ((Count/Tick))
system.ruby.dir_cntrl17.responseToDir.m_msg_count       191359                       # Number of messages passed the buffer (Count)
system.ruby.dir_cntrl17.responseToDir.m_buf_msgs     0.022277                       # Average number of messages in buffer ((Count/Tick))
system.ruby.dir_cntrl18.forwardToDir.m_msg_count       542770                       # Number of messages passed the buffer (Count)
system.ruby.dir_cntrl18.forwardToDir.m_buf_msgs     0.063187                       # Average number of messages in buffer ((Count/Tick))
system.ruby.dir_cntrl18.power_state.pwrStateResidencyTicks::UNDEFINED   2147483750                       # Cumulative time (in ticks) in various power states (Tick)
system.ruby.dir_cntrl18.requestToDir.m_msg_count       544381                       # Number of messages passed the buffer (Count)
system.ruby.dir_cntrl18.requestToDir.m_buf_msgs     0.063374                       # Average number of messages in buffer ((Count/Tick))
system.ruby.dir_cntrl18.responseToDir.m_msg_count       191534                       # Number of messages passed the buffer (Count)
system.ruby.dir_cntrl18.responseToDir.m_buf_msgs     0.022297                       # Average number of messages in buffer ((Count/Tick))
system.ruby.dir_cntrl19.forwardToDir.m_msg_count       543788                       # Number of messages passed the buffer (Count)
system.ruby.dir_cntrl19.forwardToDir.m_buf_msgs     0.063305                       # Average number of messages in buffer ((Count/Tick))
system.ruby.dir_cntrl19.power_state.pwrStateResidencyTicks::UNDEFINED   2147483750                       # Cumulative time (in ticks) in various power states (Tick)
system.ruby.dir_cntrl19.requestToDir.m_msg_count       543250                       # Number of messages passed the buffer (Count)
system.ruby.dir_cntrl19.requestToDir.m_buf_msgs     0.063243                       # Average number of messages in buffer ((Count/Tick))
system.ruby.dir_cntrl19.responseToDir.m_msg_count       190782                       # Number of messages passed the buffer (Count)
system.ruby.dir_cntrl19.responseToDir.m_buf_msgs     0.022210                       # Average number of messages in buffer ((Count/Tick))
system.ruby.dir_cntrl2.forwardToDir.m_msg_count       544257                       # Number of messages passed the buffer (Count)
system.ruby.dir_cntrl2.forwardToDir.m_buf_msgs     0.063360                       # Average number of messages in buffer ((Count/Tick))
system.ruby.dir_cntrl2.power_state.pwrStateResidencyTicks::UNDEFINED   2147483750                       # Cumulative time (in ticks) in various power states (Tick)
system.ruby.dir_cntrl2.requestToDir.m_msg_count       543469                       # Number of messages passed the buffer (Count)
system.ruby.dir_cntrl2.requestToDir.m_buf_msgs     0.063268                       # Average number of messages in buffer ((Count/Tick))
system.ruby.dir_cntrl2.responseToDir.m_msg_count       190496                       # Number of messages passed the buffer (Count)
system.ruby.dir_cntrl2.responseToDir.m_buf_msgs     0.022177                       # Average number of messages in buffer ((Count/Tick))
system.ruby.dir_cntrl20.forwardToDir.m_msg_count       544151                       # Number of messages passed the buffer (Count)
system.ruby.dir_cntrl20.forwardToDir.m_buf_msgs     0.063348                       # Average number of messages in buffer ((Count/Tick))
system.ruby.dir_cntrl20.power_state.pwrStateResidencyTicks::UNDEFINED   2147483750                       # Cumulative time (in ticks) in various power states (Tick)
system.ruby.dir_cntrl20.requestToDir.m_msg_count       543702                       # Number of messages passed the buffer (Count)
system.ruby.dir_cntrl20.requestToDir.m_buf_msgs     0.063295                       # Average number of messages in buffer ((Count/Tick))
system.ruby.dir_cntrl20.responseToDir.m_msg_count       191507                       # Number of messages passed the buffer (Count)
system.ruby.dir_cntrl20.responseToDir.m_buf_msgs     0.022294                       # Average number of messages in buffer ((Count/Tick))
system.ruby.dir_cntrl21.forwardToDir.m_msg_count       543939                       # Number of messages passed the buffer (Count)
system.ruby.dir_cntrl21.forwardToDir.m_buf_msgs     0.063323                       # Average number of messages in buffer ((Count/Tick))
system.ruby.dir_cntrl21.power_state.pwrStateResidencyTicks::UNDEFINED   2147483750                       # Cumulative time (in ticks) in various power states (Tick)
system.ruby.dir_cntrl21.requestToDir.m_msg_count       542952                       # Number of messages passed the buffer (Count)
system.ruby.dir_cntrl21.requestToDir.m_buf_msgs     0.063208                       # Average number of messages in buffer ((Count/Tick))
system.ruby.dir_cntrl21.responseToDir.m_msg_count       190535                       # Number of messages passed the buffer (Count)
system.ruby.dir_cntrl21.responseToDir.m_buf_msgs     0.022181                       # Average number of messages in buffer ((Count/Tick))
system.ruby.dir_cntrl22.forwardToDir.m_msg_count       542075                       # Number of messages passed the buffer (Count)
system.ruby.dir_cntrl22.forwardToDir.m_buf_msgs     0.063106                       # Average number of messages in buffer ((Count/Tick))
system.ruby.dir_cntrl22.power_state.pwrStateResidencyTicks::UNDEFINED   2147483750                       # Cumulative time (in ticks) in various power states (Tick)
system.ruby.dir_cntrl22.requestToDir.m_msg_count       543822                       # Number of messages passed the buffer (Count)
system.ruby.dir_cntrl22.requestToDir.m_buf_msgs     0.063309                       # Average number of messages in buffer ((Count/Tick))
system.ruby.dir_cntrl22.responseToDir.m_msg_count       191794                       # Number of messages passed the buffer (Count)
system.ruby.dir_cntrl22.responseToDir.m_buf_msgs     0.022328                       # Average number of messages in buffer ((Count/Tick))
system.ruby.dir_cntrl23.forwardToDir.m_msg_count       543656                       # Number of messages passed the buffer (Count)
system.ruby.dir_cntrl23.forwardToDir.m_buf_msgs     0.063290                       # Average number of messages in buffer ((Count/Tick))
system.ruby.dir_cntrl23.power_state.pwrStateResidencyTicks::UNDEFINED   2147483750                       # Cumulative time (in ticks) in various power states (Tick)
system.ruby.dir_cntrl23.requestToDir.m_msg_count       543088                       # Number of messages passed the buffer (Count)
system.ruby.dir_cntrl23.requestToDir.m_buf_msgs     0.063224                       # Average number of messages in buffer ((Count/Tick))
system.ruby.dir_cntrl23.responseToDir.m_msg_count       191033                       # Number of messages passed the buffer (Count)
system.ruby.dir_cntrl23.responseToDir.m_buf_msgs     0.022239                       # Average number of messages in buffer ((Count/Tick))
system.ruby.dir_cntrl24.forwardToDir.m_msg_count       543665                       # Number of messages passed the buffer (Count)
system.ruby.dir_cntrl24.forwardToDir.m_buf_msgs     0.063291                       # Average number of messages in buffer ((Count/Tick))
system.ruby.dir_cntrl24.power_state.pwrStateResidencyTicks::UNDEFINED   2147483750                       # Cumulative time (in ticks) in various power states (Tick)
system.ruby.dir_cntrl24.requestToDir.m_msg_count       542346                       # Number of messages passed the buffer (Count)
system.ruby.dir_cntrl24.requestToDir.m_buf_msgs     0.063137                       # Average number of messages in buffer ((Count/Tick))
system.ruby.dir_cntrl24.responseToDir.m_msg_count       191316                       # Number of messages passed the buffer (Count)
system.ruby.dir_cntrl24.responseToDir.m_buf_msgs     0.022272                       # Average number of messages in buffer ((Count/Tick))
system.ruby.dir_cntrl25.forwardToDir.m_msg_count       543503                       # Number of messages passed the buffer (Count)
system.ruby.dir_cntrl25.forwardToDir.m_buf_msgs     0.063272                       # Average number of messages in buffer ((Count/Tick))
system.ruby.dir_cntrl25.power_state.pwrStateResidencyTicks::UNDEFINED   2147483750                       # Cumulative time (in ticks) in various power states (Tick)
system.ruby.dir_cntrl25.requestToDir.m_msg_count       542172                       # Number of messages passed the buffer (Count)
system.ruby.dir_cntrl25.requestToDir.m_buf_msgs     0.063117                       # Average number of messages in buffer ((Count/Tick))
system.ruby.dir_cntrl25.responseToDir.m_msg_count       191677                       # Number of messages passed the buffer (Count)
system.ruby.dir_cntrl25.responseToDir.m_buf_msgs     0.022314                       # Average number of messages in buffer ((Count/Tick))
system.ruby.dir_cntrl26.forwardToDir.m_msg_count       542811                       # Number of messages passed the buffer (Count)
system.ruby.dir_cntrl26.forwardToDir.m_buf_msgs     0.063192                       # Average number of messages in buffer ((Count/Tick))
system.ruby.dir_cntrl26.power_state.pwrStateResidencyTicks::UNDEFINED   2147483750                       # Cumulative time (in ticks) in various power states (Tick)
system.ruby.dir_cntrl26.requestToDir.m_msg_count       544124                       # Number of messages passed the buffer (Count)
system.ruby.dir_cntrl26.requestToDir.m_buf_msgs     0.063344                       # Average number of messages in buffer ((Count/Tick))
system.ruby.dir_cntrl26.responseToDir.m_msg_count       191563                       # Number of messages passed the buffer (Count)
system.ruby.dir_cntrl26.responseToDir.m_buf_msgs     0.022301                       # Average number of messages in buffer ((Count/Tick))
system.ruby.dir_cntrl27.forwardToDir.m_msg_count       542672                       # Number of messages passed the buffer (Count)
system.ruby.dir_cntrl27.forwardToDir.m_buf_msgs     0.063175                       # Average number of messages in buffer ((Count/Tick))
system.ruby.dir_cntrl27.power_state.pwrStateResidencyTicks::UNDEFINED   2147483750                       # Cumulative time (in ticks) in various power states (Tick)
[...]
system.ruby.network.sankey.vcvn35.vcvn5             0                       (Unspecified)
system.ruby.network.sankey.vcvn35.vcvn6             0                       (Unspecified)
system.ruby.network.sankey.vcvn35.vcvn7             0                       (Unspecified)
system.ruby.network.sankey.vcvn35.vcvn8             0                       (Unspecified)
system.ruby.network.sankey.vcvn35.vcvn9             0                       (Unspecified)
system.ruby.network.sankey.vcvn4.vcvn0              0                       (Unspecified)
system.ruby.network.sankey.vcvn4.vcvn1              0                       (Unspecified)
system.ruby.network.sankey.vcvn4.vcvn10             0                       (Unspecified)
system.ruby.network.sankey.vcvn4.vcvn11             0                       (Unspecified)
system.ruby.network.sankey.vcvn4.vcvn12             0                       (Unspecified)
system.ruby.network.sankey.vcvn4.vcvn13             0                       (Unspecified)
system.ruby.network.sankey.vcvn4.vcvn14             0                       (Unspecified)
system.ruby.network.sankey.vcvn4.vcvn15             0                       (Unspecified)
system.ruby.network.sankey.vcvn4.vcvn16             0                       (Unspecified)
system.ruby.network.sankey.vcvn4.vcvn17             0                       (Unspecified)
system.ruby.network.sankey.vcvn4.vcvn18             0                       (Unspecified)
system.ruby.network.sankey.vcvn4.vcvn19             0                       (Unspecified)
system.ruby.network.sankey.vcvn4.vcvn2              0                       (Unspecified)
system.ruby.network.sankey.vcvn4.vcvn20             0                       (Unspecified)
system.ruby.network.sankey.vcvn4.vcvn21             0                       (Unspecified)
system.ruby.network.sankey.vcvn4.vcvn22             0                       (Unspecified)
system.ruby.network.sankey.vcvn4.vcvn23             0                       (Unspecified)
system.ruby.network.sankey.vcvn4.vcvn24             0                       (Unspecified)
system.ruby.network.sankey.vcvn4.vcvn25             0                       (Unspecified)
system.ruby.network.sankey.vcvn4.vcvn26             0                       (Unspecified)
system.ruby.network.sankey.vcvn4.vcvn27             0                       (Unspecified)
system.ruby.network.sankey.vcvn4.vcvn28             0                       (Unspecified)
system.ruby.network.sankey.vcvn4.vcvn29             0                       (Unspecified)
system.ruby.network.sankey.vcvn4.vcvn3              0                       (Unspecified)
system.ruby.network.sankey.vcvn4.vcvn30             0                       (Unspecified)
system.ruby.network.sankey.vcvn4.vcvn31             0                       (Unspecified)
system.ruby.network.sankey.vcvn4.vcvn32             0                       (Unspecified)
system.ruby.network.sankey.vcvn4.vcvn33             0                       (Unspecified)
system.ruby.network.sankey.vcvn4.vcvn34             0                       (Unspecified)
system.ruby.network.sankey.vcvn4.vcvn35             0                       (Unspecified)
system.ruby.network.sankey.vcvn4.vcvn4        2323237                       (Unspecified)
system.ruby.network.sankey.vcvn4.vcvn5              0                       (Unspecified)
system.ruby.network.sankey.vcvn4.vcvn6              0                       (Unspecified)
system.ruby.network.sankey.vcvn4.vcvn7              0                       (Unspecified)
system.ruby.network.sankey.vcvn4.vcvn8              0                       (Unspecified)
system.ruby.network.sankey.vcvn4.vcvn9              0                       (Unspecified)
system.ruby.network.sankey.vcvn5.vcvn0              0                       (Unspecified)
system.ruby.network.sankey.vcvn5.vcvn1              0                       (Unspecified)
system.ruby.network.sankey.vcvn5.vcvn10             0                       (Unspecified)
system.ruby.network.sankey.vcvn5.vcvn11             0                       (Unspecified)
system.ruby.network.sankey.vcvn5.vcvn12             0                       (Unspecified)
system.ruby.network.sankey.vcvn5.vcvn13             0                       (Unspecified)
system.ruby.network.sankey.vcvn5.vcvn14             0                       (Unspecified)
system.ruby.network.sankey.vcvn5.vcvn15             0                       (Unspecified)
system.ruby.network.sankey.vcvn5.vcvn16             0                       (Unspecified)
system.ruby.network.sankey.vcvn5.vcvn17             0                       (Unspecified)
system.ruby.network.sankey.vcvn5.vcvn18             0                       (Unspecified)
system.ruby.network.sankey.vcvn5.vcvn19             0                       (Unspecified)
system.ruby.network.sankey.vcvn5.vcvn2              0                       (Unspecified)
system.ruby.network.sankey.vcvn5.vcvn20             0                       (Unspecified)
system.ruby.network.sankey.vcvn5.vcvn21             0                       (Unspecified)
system.ruby.network.sankey.vcvn5.vcvn22             0                       (Unspecified)
system.ruby.network.sankey.vcvn5.vcvn23             0                       (Unspecified)
system.ruby.network.sankey.vcvn5.vcvn24             0                       (Unspecified)
system.ruby.network.sankey.vcvn5.vcvn25             0                       (Unspecified)
system.ruby.network.sankey.vcvn5.vcvn26             0                       (Unspecified)
system.ruby.network.sankey.vcvn5.vcvn27             0                       (Unspecified)
system.ruby.network.sankey.vcvn5.vcvn28             0                       (Unspecified)
system.ruby.network.sankey.vcvn5.vcvn29             0                       (Unspecified)
system.ruby.network.sankey.vcvn5.vcvn3              0                       (Unspecified)
system.ruby.network.sankey.vcvn5.vcvn30             0                       (Unspecified)
system.ruby.network.sankey.vcvn5.vcvn31             0                       (Unspecified)
system.ruby.network.sankey.vcvn5.vcvn32             0                       (Unspecified)
system.ruby.network.sankey.vcvn5.vcvn33             0                       (Unspecified)
system.ruby.network.sankey.vcvn5.vcvn34             0                       (Unspecified)
system.ruby.network.sankey.vcvn5.vcvn35             0                       (Unspecified)
system.ruby.network.sankey.vcvn5.vcvn4              0                       (Unspecified)
system.ruby.network.sankey.vcvn5.vcvn5        1964651                       (Unspecified)
system.ruby.network.sankey.vcvn5.vcvn6              0                       (Unspecified)
system.ruby.network.sankey.vcvn5.vcvn7              0                       (Unspecified)
system.ruby.network.sankey.vcvn5.vcvn8              0                       (Unspecified)
system.ruby.network.sankey.vcvn5.vcvn9              0                       (Unspecified)
system.ruby.network.sankey.vcvn6.vcvn0              0                       (Unspecified)
system.ruby.network.sankey.vcvn6.vcvn1              0                       (Unspecified)
system.ruby.network.sankey.vcvn6.vcvn10             0                       (Unspecified)
system.ruby.network.sankey.vcvn6.vcvn11             0                       (Unspecified)
system.ruby.network.sankey.vcvn6.vcvn12             0                       (Unspecified)
system.ruby.network.sankey.vcvn6.vcvn13             0                       (Unspecified)
system.ruby.network.sankey.vcvn6.vcvn14             0                       (Unspecified)
system.ruby.network.sankey.vcvn6.vcvn15             0                       (Unspecified)
system.ruby.network.sankey.vcvn6.vcvn16             0                       (Unspecified)
system.ruby.network.sankey.vcvn6.vcvn17             0                       (Unspecified)
system.ruby.network.sankey.vcvn6.vcvn18             0                       (Unspecified)
system.ruby.network.sankey.vcvn6.vcvn19             0                       (Unspecified)
system.ruby.network.sankey.vcvn6.vcvn2              0                       (Unspecified)
system.ruby.network.sankey.vcvn6.vcvn20             0                       (Unspecified)
system.ruby.network.sankey.vcvn6.vcvn21             0                       (Unspecified)
system.ruby.network.sankey.vcvn6.vcvn22             0                       (Unspecified)
system.ruby.network.sankey.vcvn6.vcvn23             0                       (Unspecified)
system.ruby.network.sankey.vcvn6.vcvn24             0                       (Unspecified)
system.ruby.network.sankey.vcvn6.vcvn25             0                       (Unspecified)
system.ruby.network.sankey.vcvn6.vcvn26             0                       (Unspecified)
system.ruby.network.sankey.vcvn6.vcvn27             0                       (Unspecified)
system.ruby.network.sankey.vcvn6.vcvn28             0                       (Unspecified)
system.ruby.network.sankey.vcvn6.vcvn29             0                       (Unspecified)
system.ruby.network.sankey.vcvn6.vcvn3              0                       (Unspecified)
system.ruby.network.sankey.vcvn6.vcvn30             0                       (Unspecified)
system.ruby.network.sankey.vcvn6.vcvn31             0                       (Unspecified)
system.ruby.network.sankey.vcvn6.vcvn32             0                       (Unspecified)
system.ruby.network.sankey.vcvn6.vcvn33             0                       (Unspecified)
system.ruby.network.sankey.vcvn6.vcvn34             0                       (Unspecified)
system.ruby.network.sankey.vcvn6.vcvn35             0                       (Unspecified)
system.ruby.network.sankey.vcvn6.vcvn4              0                       (Unspecified)
system.ruby.network.sankey.vcvn6.vcvn5              0                       (Unspecified)
system.ruby.network.sankey.vcvn6.vcvn6        2657511                       (Unspecified)
system.ruby.network.sankey.vcvn6.vcvn7              0                       (Unspecified)
system.ruby.network.sankey.vcvn6.vcvn8              0                       (Unspecified)
system.ruby.network.sankey.vcvn6.vcvn9              0                       (Unspecified)
system.ruby.network.sankey.vcvn7.vcvn0              0                       (Unspecified)
system.ruby.network.sankey.vcvn7.vcvn1              0                       (Unspecified)
system.ruby.network.sankey.vcvn7.vcvn10             0                       (Unspecified)
system.ruby.network.sankey.vcvn7.vcvn11             0                       (Unspecified)
system.ruby.network.sankey.vcvn7.vcvn12             0                       (Unspecified)
system.ruby.network.sankey.vcvn7.vcvn13             0                       (Unspecified)
system.ruby.network.sankey.vcvn7.vcvn14             0                       (Unspecified)
system.ruby.network.sankey.vcvn7.vcvn15             0                       (Unspecified)
system.ruby.network.sankey.vcvn7.vcvn16             0                       (Unspecified)
system.ruby.network.sankey.vcvn7.vcvn17             0                       (Unspecified)
system.ruby.network.sankey.vcvn7.vcvn18             0                       (Unspecified)
system.ruby.network.sankey.vcvn7.vcvn19             0                       (Unspecified)
system.ruby.network.sankey.vcvn7.vcvn2              0                       (Unspecified)
system.ruby.network.sankey.vcvn7.vcvn20             0                       (Unspecified)
system.ruby.network.sankey.vcvn7.vcvn21             0                       (Unspecified)
system.ruby.network.sankey.vcvn7.vcvn22             0                       (Unspecified)
system.ruby.network.sankey.vcvn7.vcvn23             0                       (Unspecified)
system.ruby.network.sankey.vcvn7.vcvn24             0                       (Unspecified)
system.ruby.network.sankey.vcvn7.vcvn25             0                       (Unspecified)
system.ruby.network.sankey.vcvn7.vcvn26             0                       (Unspecified)
system.ruby.network.sankey.vcvn7.vcvn27             0                       (Unspecified)
system.ruby.network.sankey.vcvn7.vcvn28             0                       (Unspecified)
system.ruby.network.sankey.vcvn7.vcvn29             0                       (Unspecified)
system.ruby.network.sankey.vcvn7.vcvn3              0                       (Unspecified)
system.ruby.network.sankey.vcvn7.vcvn30             0                       (Unspecified)
system.ruby.network.sankey.vcvn7.vcvn31             0                       (Unspecified)
system.ruby.network.sankey.vcvn7.vcvn32             0                       (Unspecified)
system.ruby.network.sankey.vcvn7.vcvn33             0                       (Unspecified)
system.ruby.network.sankey.vcvn7.vcvn34             0                       (Unspecified)
system.ruby.network.sankey.vcvn7.vcvn35             0                       (Unspecified)
system.ruby.network.sankey.vcvn7.vcvn4              0                       (Unspecified)
system.ruby.network.sankey.vcvn7.vcvn5              0                       (Unspecified)
system.ruby.network.sankey.vcvn7.vcvn6              0                       (Unspecified)
system.ruby.network.sankey.vcvn7.vcvn7        1913759                       (Unspecified)
system.ruby.network.sankey.vcvn7.vcvn8              0                       (Unspecified)
system.ruby.network.sankey.vcvn7.vcvn9              0                       (Unspecified)
system.ruby.network.sankey.vcvn8.vcvn0              0                       (Unspecified)
system.ruby.network.sankey.vcvn8.vcvn1              0                       (Unspecified)
system.ruby.network.sankey.vcvn8.vcvn10             0                       (Unspecified)
system.ruby.network.sankey.vcvn8.vcvn11             0                       (Unspecified)
system.ruby.network.sankey.vcvn8.vcvn12             0                       (Unspecified)
system.ruby.network.sankey.vcvn8.vcvn13             0                       (Unspecified)
system.ruby.network.sankey.vcvn8.vcvn14             0                       (Unspecified)
system.ruby.network.sankey.vcvn8.vcvn15             0                       (Unspecified)
system.ruby.network.sankey.vcvn8.vcvn16             0                       (Unspecified)
system.ruby.network.sankey.vcvn8.vcvn17             0                       (Unspecified)
system.ruby.network.sankey.vcvn8.vcvn18             0                       (Unspecified)
system.ruby.network.sankey.vcvn8.vcvn19             0                       (Unspecified)
system.ruby.network.sankey.vcvn8.vcvn2              0                       (Unspecified)
system.ruby.network.sankey.vcvn8.vcvn20             0                       (Unspecified)
system.ruby.network.sankey.vcvn8.vcvn21             0                       (Unspecified)
system.ruby.network.sankey.vcvn8.vcvn22             0                       (Unspecified)
system.ruby.network.sankey.vcvn8.vcvn23             0                       (Unspecified)
system.ruby.network.sankey.vcvn8.vcvn24             0                       (Unspecified)
system.ruby.network.sankey.vcvn8.vcvn25             0                       (Unspecified)
system.ruby.network.sankey.vcvn8.vcvn26             0                       (Unspecified)
system.ruby.network.sankey.vcvn8.vcvn27             0                       (Unspecified)
system.ruby.network.sankey.vcvn8.vcvn28             0                       (Unspecified)
system.ruby.network.sankey.vcvn8.vcvn29             0                       (Unspecified)
system.ruby.network.sankey.vcvn8.vcvn3              0                       (Unspecified)
system.ruby.network.sankey.vcvn8.vcvn30             0                       (Unspecified)
system.ruby.network.sankey.vcvn8.vcvn31             0                       (Unspecified)
system.ruby.network.sankey.vcvn8.vcvn32             0                       (Unspecified)
system.ruby.network.sankey.vcvn8.vcvn33             0                       (Unspecified)
system.ruby.network.sankey.vcvn8.vcvn34             0                       (Unspecified)
system.ruby.network.sankey.vcvn8.vcvn35             0                       (Unspecified)
system.ruby.network.sankey.vcvn8.vcvn4              0                       (Unspecified)
system.ruby.network.sankey.vcvn8.vcvn5              0                       (Unspecified)
system.ruby.network.sankey.vcvn8.vcvn6              0                       (Unspecified)
system.ruby.network.sankey.vcvn8.vcvn7              0                       (Unspecified)
system.ruby.network.sankey.vcvn8.vcvn8        2332572                       (Unspecified)
system.ruby.network.sankey.vcvn8.vcvn9              0                       (Unspecified)
system.ruby.network.sankey.vcvn9.vcvn0              0                       (Unspecified)
system.ruby.network.sankey.vcvn9.vcvn1              0                       (Unspecified)
system.ruby.network.sankey.vcvn9.vcvn10             0                       (Unspecified)
system.ruby.network.sankey.vcvn9.vcvn11             0                       (Unspecified)
system.ruby.network.sankey.vcvn9.vcvn12             0                       (Unspecified)
system.ruby.network.sankey.vcvn9.vcvn13             0                       (Unspecified)
system.ruby.network.sankey.vcvn9.vcvn14             0                       (Unspecified)
system.ruby.network.sankey.vcvn9.vcvn15             0                       (Unspecified)
system.ruby.network.sankey.vcvn9.vcvn16             0                       (Unspecified)
system.ruby.network.sankey.vcvn9.vcvn17             0                       (Unspecified)
system.ruby.network.sankey.vcvn9.vcvn18             0                       (Unspecified)
system.ruby.network.sankey.vcvn9.vcvn19             0                       (Unspecified)
system.ruby.network.sankey.vcvn9.vcvn2              0                       (Unspecified)
system.ruby.network.sankey.vcvn9.vcvn20             0                       (Unspecified)
system.ruby.network.sankey.vcvn9.vcvn21             0                       (Unspecified)
system.ruby.network.sankey.vcvn9.vcvn22             0                       (Unspecified)
system.ruby.network.sankey.vcvn9.vcvn23             0                       (Unspecified)
system.ruby.network.sankey.vcvn9.vcvn24             0                       (Unspecified)
system.ruby.network.sankey.vcvn9.vcvn25             0                       (Unspecified)
system.ruby.network.sankey.vcvn9.vcvn26             0                       (Unspecified)
system.ruby.network.sankey.vcvn9.vcvn27             0                       (Unspecified)
system.ruby.network.sankey.vcvn9.vcvn28             0                       (Unspecified)
system.ruby.network.sankey.vcvn9.vcvn29             0                       (Unspecified)
system.ruby.network.sankey.vcvn9.vcvn3              0                       (Unspecified)
system.ruby.network.sankey.vcvn9.vcvn30             0                       (Unspecified)
system.ruby.network.sankey.vcvn9.vcvn31             0                       (Unspecified)
system.ruby.network.sankey.vcvn9.vcvn32             0                       (Unspecified)
system.ruby.network.sankey.vcvn9.vcvn33             0                       (Unspecified)
system.ruby.network.sankey.vcvn9.vcvn34             0                       (Unspecified)
system.ruby.network.sankey.vcvn9.vcvn35             0                       (Unspecified)
system.ruby.network.sankey.vcvn9.vcvn4              0                       (Unspecified)
system.ruby.network.sankey.vcvn9.vcvn5              0                       (Unspecified)
system.ruby.network.sankey.vcvn9.vcvn6              0                       (Unspecified)
system.ruby.network.sankey.vcvn9.vcvn7              0                       (Unspecified)
system.ruby.network.sankey.vcvn9.vcvn8              0                       (Unspecified)
system.ruby.network.sankey.vcvn9.vcvn9        1918918                       (Unspecified)

---------- End Simulation Statistics   ----------
