gem5 Simulator System.  https://www.gem5.org
gem5 is copyrighted software; use the --copyright option for details.

gem5 version 22.0.0.2
gem5 compiled Jun 17 2023 14:31:12
gem5 started Nov 18 2023 15:52:38
gem5 executing on mnemosyne24.ecn.purdue.edu, pid 16077
command line: ./build/Garnet_standalone/gem5.fast -d ./synth_outputs/simple/2b/mixed/nndbt_none_2_6_40cpus_4xdirs_4.0GHz/mem/ns_l_latop/0_16/ configs/auto_top/auto_top_synth.py --topology EscapeVirtualNetworks --noi_routers 20 --sim-cycles 2147483647 --injectionrate 0.16 --noc_clk 4.0GHz --sys-clock 4.0GHz --ruby-clock 4.0GHz --noi_clk 2.7GHz --router_map_file configs/topologies/paper_solutions/ns_l_latop.map --flat_vn_map_file configs/topologies/vn_maps_ndbt/ns_l_latop_nndbt_none_2vns.vn --flat_nr_map_file configs/topologies/nr_list_ndbt/ns_l_latop_nndbt.nrl --ruby --mem_or_coh mem --mem-size 320000000 --num-dirs 64 --num-cpus 40 --network garnet --mem-type SimpleMemory --routing-algorithm 2 --use_escape_vns --synth_traffic --vcs-per-vnet 6 --evn_deadlock_partition 4 --evn_n_deadlock_free 1 --evn_min_n_deadlock_free 2

info: Standard input is not a terminal, disabling listeners.
ingesting configs/topologies/vn_maps_ndbt/ns_l_latop_nndbt_none_2vns.vn
cpus(40)=[<m5.objects.GarnetSyntheticTraffic.GarnetSyntheticTraffic object at 0x7f4d6c378080>, <m5.objects.GarnetSyntheticTraffic.GarnetSyntheticTraffic object at 0x7f4d6c378e48>, <m5.objects.GarnetSyntheticTraffic.GarnetSyntheticTraffic object at 0x7f4d6bef6160>, <m5.objects.GarnetSyntheticTraffic.GarnetSyntheticTraffic object at 0x7f4d6bef6438>, <m5.objects.GarnetSyntheticTraffic.GarnetSyntheticTraffic object at 0x7f4d6bef6710>, <m5.objects.GarnetSyntheticTraffic.GarnetSyntheticTraffic object at 0x7f4d6bef69e8>, <m5.objects.GarnetSyntheticTraffic.GarnetSyntheticTraffic object at 0x7f4d6bef6cc0>, <m5.objects.GarnetSyntheticTraffic.GarnetSyntheticTraffic object at 0x7f4d6bef6f98>, <m5.objects.GarnetSyntheticTraffic.GarnetSyntheticTraffic object at 0x7f4d6beff2b0>, <m5.objects.GarnetSyntheticTraffic.GarnetSyntheticTraffic object at 0x7f4d6beff588>, <m5.objects.GarnetSyntheticTraffic.GarnetSyntheticTraffic object at 0x7f4d6beff860>, <m5.objects.GarnetSyntheticTraffic.GarnetSyntheticTraffic object at 0x7f4d6beffb38>, <m5.objects.GarnetSyntheticTraffic.GarnetSyntheticTraffic object at 0x7f4d6c378898>, <m5.objects.GarnetSyntheticTraffic.GarnetSyntheticTraffic object at 0x7f4d6c369eb8>, <m5.objects.GarnetSyntheticTraffic.GarnetSyntheticTraffic object at 0x7f4d6c373710>, <m5.objects.GarnetSyntheticTraffic.GarnetSyntheticTraffic object at 0x7f4d6c373d68>, <m5.objects.GarnetSyntheticTraffic.GarnetSyntheticTraffic object at 0x7f4d6beffda0>, <m5.objects.GarnetSyntheticTraffic.GarnetSyntheticTraffic object at 0x7f4d6bf0b0b8>, <m5.objects.GarnetSyntheticTraffic.GarnetSyntheticTraffic object at 0x7f4d6bf0b390>, <m5.objects.GarnetSyntheticTraffic.GarnetSyntheticTraffic object at 0x7f4d6bf0b668>, <m5.objects.GarnetSyntheticTraffic.GarnetSyntheticTraffic object at 0x7f4d6bf0b940>, <m5.objects.GarnetSyntheticTraffic.GarnetSyntheticTraffic object at 0x7f4d6bf0bbe0>, <m5.objects.GarnetSyntheticTraffic.GarnetSyntheticTraffic object at 0x7f4d6bf0beb8>, <m5.objects.GarnetSyntheticTraffic.GarnetSyntheticTraffic object at 0x7f4d6bf131d0>, <m5.objects.GarnetSyntheticTraffic.GarnetSyntheticTraffic object at 0x7f4d6bf134a8>, <m5.objects.GarnetSyntheticTraffic.GarnetSyntheticTraffic object at 0x7f4d6bf13780>, <m5.objects.GarnetSyntheticTraffic.GarnetSyntheticTraffic object at 0x7f4d6bf13a58>, <m5.objects.GarnetSyntheticTraffic.GarnetSyntheticTraffic object at 0x7f4d6bf13d30>, <m5.objects.GarnetSyntheticTraffic.GarnetSyntheticTraffic object at 0x7f4d6bf1a048>, <m5.objects.GarnetSyntheticTraffic.GarnetSyntheticTraffic object at 0x7f4d6bf1a320>, <m5.objects.GarnetSyntheticTraffic.GarnetSyntheticTraffic object at 0x7f4d6bf1a5f8>, <m5.objects.GarnetSyntheticTraffic.GarnetSyntheticTraffic object at 0x7f4d6bf1a8d0>, <m5.objects.GarnetSyntheticTraffic.GarnetSyntheticTraffic object at 0x7f4d6bf1aba8>, <m5.objects.GarnetSyntheticTraffic.GarnetSyntheticTraffic object at 0x7f4d6bf1ae80>, <m5.objects.GarnetSyntheticTraffic.GarnetSyntheticTraffic object at 0x7f4d6bf23198>, <m5.objects.GarnetSyntheticTraffic.GarnetSyntheticTraffic object at 0x7f4d6bf23470>, <m5.objects.GarnetSyntheticTraffic.GarnetSyntheticTraffic object at 0x7f4d6bf23748>, <m5.objects.GarnetSyntheticTraffic.GarnetSyntheticTraffic object at 0x7f4d6bf23a20>, <m5.objects.GarnetSyntheticTraffic.GarnetSyntheticTraffic object at 0x7f4d6bf23cf8>, <m5.objects.GarnetSyntheticTraffic.GarnetSyntheticTraffic object at 0x7f4d6bf23fd0>])
ingesting configs/topologies/nr_list_ndbt/ns_l_latop_nndbt.nrl
ingesting configs/topologies/vn_maps_ndbt/ns_l_latop_nndbt_none_2vns.vn
ext_cdc_required = True
