gem5 Simulator System.  https://www.gem5.org
gem5 is copyrighted software; use the --copyright option for details.

gem5 version 22.0.0.2
gem5 compiled Jun 17 2023 14:31:12
gem5 started Nov 18 2023 15:48:33
gem5 executing on mnemosyne14.ecn.purdue.edu, pid 23171
command line: ./build/Garnet_standalone/gem5.fast -d ./synth_outputs/simple/2b/mixed/mclb_hops_4_6_40cpus_4xdirs_4.0GHz/coh/lpbt_s_latop/0_15/ configs/auto_top/auto_top_synth.py --topology EscapeVirtualNetworks --noi_routers 20 --sim-cycles 2147483647 --injectionrate 0.15 --noc_clk 4.0GHz --sys-clock 4.0GHz --ruby-clock 4.0GHz --noi_clk 3.6GHz --router_map_file configs/topologies/paper_solutions/lpbt_s_latop.map --flat_vn_map_file configs/topologies/vn_maps_mclb/lpbt_s_latop_mclb_hops_4vns.vn --flat_nr_map_file configs/topologies/nr_list_mclb/lpbt_s_latop_mclb.nrl --ruby --mem_or_coh coh --mem-size 320000000 --num-dirs 160 --num-cpus 40 --network garnet --mem-type SimpleMemory --routing-algorithm 2 --use_escape_vns --synth_traffic --vcs-per-vnet 6 --evn_deadlock_partition 2 --evn_n_deadlock_free 1 --evn_min_n_deadlock_free 4

info: Standard input is not a terminal, disabling listeners.
ingesting configs/topologies/vn_maps_mclb/lpbt_s_latop_mclb_hops_4vns.vn
cpus(40)=[<m5.objects.GarnetSyntheticTraffic.GarnetSyntheticTraffic object at 0x7f09c4a91048>, <m5.objects.GarnetSyntheticTraffic.GarnetSyntheticTraffic object at 0x7f09c4a91e10>, <m5.objects.GarnetSyntheticTraffic.GarnetSyntheticTraffic object at 0x7f09c460d128>, <m5.objects.GarnetSyntheticTraffic.GarnetSyntheticTraffic object at 0x7f09c460d400>, <m5.objects.GarnetSyntheticTraffic.GarnetSyntheticTraffic object at 0x7f09c460d6d8>, <m5.objects.GarnetSyntheticTraffic.GarnetSyntheticTraffic object at 0x7f09c460d9b0>, <m5.objects.GarnetSyntheticTraffic.GarnetSyntheticTraffic object at 0x7f09c460dc88>, <m5.objects.GarnetSyntheticTraffic.GarnetSyntheticTraffic object at 0x7f09c460df60>, <m5.objects.GarnetSyntheticTraffic.GarnetSyntheticTraffic object at 0x7f09c4616278>, <m5.objects.GarnetSyntheticTraffic.GarnetSyntheticTraffic object at 0x7f09c4616550>, <m5.objects.GarnetSyntheticTraffic.GarnetSyntheticTraffic object at 0x7f09c4616828>, <m5.objects.GarnetSyntheticTraffic.GarnetSyntheticTraffic object at 0x7f09c4616b00>, <m5.objects.GarnetSyntheticTraffic.GarnetSyntheticTraffic object at 0x7f09c4a91860>, <m5.objects.GarnetSyntheticTraffic.GarnetSyntheticTraffic object at 0x7f09c4a80eb8>, <m5.objects.GarnetSyntheticTraffic.GarnetSyntheticTraffic object at 0x7f09c4a8a6d8>, <m5.objects.GarnetSyntheticTraffic.GarnetSyntheticTraffic object at 0x7f09c4a8ad30>, <m5.objects.GarnetSyntheticTraffic.GarnetSyntheticTraffic object at 0x7f09c4616d68>, <m5.objects.GarnetSyntheticTraffic.GarnetSyntheticTraffic object at 0x7f09c4622080>, <m5.objects.GarnetSyntheticTraffic.GarnetSyntheticTraffic object at 0x7f09c4622358>, <m5.objects.GarnetSyntheticTraffic.GarnetSyntheticTraffic object at 0x7f09c4622630>, <m5.objects.GarnetSyntheticTraffic.GarnetSyntheticTraffic object at 0x7f09c4622908>, <m5.objects.GarnetSyntheticTraffic.GarnetSyntheticTraffic object at 0x7f09c4622be0>, <m5.objects.GarnetSyntheticTraffic.GarnetSyntheticTraffic object at 0x7f09c4622eb8>, <m5.objects.GarnetSyntheticTraffic.GarnetSyntheticTraffic object at 0x7f09c46291d0>, <m5.objects.GarnetSyntheticTraffic.GarnetSyntheticTraffic object at 0x7f09c46294a8>, <m5.objects.GarnetSyntheticTraffic.GarnetSyntheticTraffic object at 0x7f09c4629780>, <m5.objects.GarnetSyntheticTraffic.GarnetSyntheticTraffic object at 0x7f09c4629a58>, <m5.objects.GarnetSyntheticTraffic.GarnetSyntheticTraffic object at 0x7f09c4629d30>, <m5.objects.GarnetSyntheticTraffic.GarnetSyntheticTraffic object at 0x7f09c4631048>, <m5.objects.GarnetSyntheticTraffic.GarnetSyntheticTraffic object at 0x7f09c4631320>, <m5.objects.GarnetSyntheticTraffic.GarnetSyntheticTraffic object at 0x7f09c46315f8>, <m5.objects.GarnetSyntheticTraffic.GarnetSyntheticTraffic object at 0x7f09c46318d0>, <m5.objects.GarnetSyntheticTraffic.GarnetSyntheticTraffic object at 0x7f09c4631ba8>, <m5.objects.GarnetSyntheticTraffic.GarnetSyntheticTraffic object at 0x7f09c4631e80>, <m5.objects.GarnetSyntheticTraffic.GarnetSyntheticTraffic object at 0x7f09c463a198>, <m5.objects.GarnetSyntheticTraffic.GarnetSyntheticTraffic object at 0x7f09c463a470>, <m5.objects.GarnetSyntheticTraffic.GarnetSyntheticTraffic object at 0x7f09c463a748>, <m5.objects.GarnetSyntheticTraffic.GarnetSyntheticTraffic object at 0x7f09c463aa20>, <m5.objects.GarnetSyntheticTraffic.GarnetSyntheticTraffic object at 0x7f09c463acf8>, <m5.objects.GarnetSyntheticTraffic.GarnetSyntheticTraffic object at 0x7f09c463afd0>])
ingesting configs/topologies/nr_list_mclb/lpbt_s_latop_mclb.nrl
ingesting configs/topologies/vn_maps_mclb/lpbt_s_latop_mclb_hops_4vns.vn
ext_cdc_required = True
