gem5 Simulator System.  https://www.gem5.org
gem5 is copyrighted software; use the --copyright option for details.

gem5 version 22.0.0.2
gem5 compiled Jun 17 2023 14:31:12
gem5 started Nov 18 2023 15:50:27
gem5 executing on mnemosyne14.ecn.purdue.edu, pid 23906
command line: ./build/Garnet_standalone/gem5.fast -d ./synth_outputs/simple/2b/mixed/mclb_hops_4_6_40cpus_4xdirs_4.0GHz/coh/ns_s_scop/0_185/ configs/auto_top/auto_top_synth.py --topology EscapeVirtualNetworks --noi_routers 20 --sim-cycles 2147483647 --injectionrate 0.185 --noc_clk 4.0GHz --sys-clock 4.0GHz --ruby-clock 4.0GHz --noi_clk 3.6GHz --router_map_file configs/topologies/paper_solutions/ns_s_scop.map --flat_vn_map_file configs/topologies/vn_maps_mclb/ns_s_scop_mclb_hops_4vns.vn --flat_nr_map_file configs/topologies/nr_list_mclb/ns_s_scop_mclb.nrl --ruby --mem_or_coh coh --mem-size 320000000 --num-dirs 160 --num-cpus 40 --network garnet --mem-type SimpleMemory --routing-algorithm 2 --use_escape_vns --synth_traffic --vcs-per-vnet 6 --evn_deadlock_partition 2 --evn_n_deadlock_free 1 --evn_min_n_deadlock_free 4

info: Standard input is not a terminal, disabling listeners.
ingesting configs/topologies/vn_maps_mclb/ns_s_scop_mclb_hops_4vns.vn
cpus(40)=[<m5.objects.GarnetSyntheticTraffic.GarnetSyntheticTraffic object at 0x7f5b2f748048>, <m5.objects.GarnetSyntheticTraffic.GarnetSyntheticTraffic object at 0x7f5b2f748e10>, <m5.objects.GarnetSyntheticTraffic.GarnetSyntheticTraffic object at 0x7f5b2f2c5128>, <m5.objects.GarnetSyntheticTraffic.GarnetSyntheticTraffic object at 0x7f5b2f2c5400>, <m5.objects.GarnetSyntheticTraffic.GarnetSyntheticTraffic object at 0x7f5b2f2c56d8>, <m5.objects.GarnetSyntheticTraffic.GarnetSyntheticTraffic object at 0x7f5b2f2c59b0>, <m5.objects.GarnetSyntheticTraffic.GarnetSyntheticTraffic object at 0x7f5b2f2c5c88>, <m5.objects.GarnetSyntheticTraffic.GarnetSyntheticTraffic object at 0x7f5b2f2c5f60>, <m5.objects.GarnetSyntheticTraffic.GarnetSyntheticTraffic object at 0x7f5b2f2ce278>, <m5.objects.GarnetSyntheticTraffic.GarnetSyntheticTraffic object at 0x7f5b2f2ce550>, <m5.objects.GarnetSyntheticTraffic.GarnetSyntheticTraffic object at 0x7f5b2f2ce828>, <m5.objects.GarnetSyntheticTraffic.GarnetSyntheticTraffic object at 0x7f5b2f2ceb00>, <m5.objects.GarnetSyntheticTraffic.GarnetSyntheticTraffic object at 0x7f5b2f748860>, <m5.objects.GarnetSyntheticTraffic.GarnetSyntheticTraffic object at 0x7f5b2f738eb8>, <m5.objects.GarnetSyntheticTraffic.GarnetSyntheticTraffic object at 0x7f5b2f7436d8>, <m5.objects.GarnetSyntheticTraffic.GarnetSyntheticTraffic object at 0x7f5b2f743d30>, <m5.objects.GarnetSyntheticTraffic.GarnetSyntheticTraffic object at 0x7f5b2f2ced68>, <m5.objects.GarnetSyntheticTraffic.GarnetSyntheticTraffic object at 0x7f5b2f2da080>, <m5.objects.GarnetSyntheticTraffic.GarnetSyntheticTraffic object at 0x7f5b2f2da358>, <m5.objects.GarnetSyntheticTraffic.GarnetSyntheticTraffic object at 0x7f5b2f2da630>, <m5.objects.GarnetSyntheticTraffic.GarnetSyntheticTraffic object at 0x7f5b2f2da908>, <m5.objects.GarnetSyntheticTraffic.GarnetSyntheticTraffic object at 0x7f5b2f2dabe0>, <m5.objects.GarnetSyntheticTraffic.GarnetSyntheticTraffic object at 0x7f5b2f2daeb8>, <m5.objects.GarnetSyntheticTraffic.GarnetSyntheticTraffic object at 0x7f5b2f2e11d0>, <m5.objects.GarnetSyntheticTraffic.GarnetSyntheticTraffic object at 0x7f5b2f2e14a8>, <m5.objects.GarnetSyntheticTraffic.GarnetSyntheticTraffic object at 0x7f5b2f2e1780>, <m5.objects.GarnetSyntheticTraffic.GarnetSyntheticTraffic object at 0x7f5b2f2e1a58>, <m5.objects.GarnetSyntheticTraffic.GarnetSyntheticTraffic object at 0x7f5b2f2e1d30>, <m5.objects.GarnetSyntheticTraffic.GarnetSyntheticTraffic object at 0x7f5b2f2e9048>, <m5.objects.GarnetSyntheticTraffic.GarnetSyntheticTraffic object at 0x7f5b2f2e9320>, <m5.objects.GarnetSyntheticTraffic.GarnetSyntheticTraffic object at 0x7f5b2f2e95f8>, <m5.objects.GarnetSyntheticTraffic.GarnetSyntheticTraffic object at 0x7f5b2f2e98d0>, <m5.objects.GarnetSyntheticTraffic.GarnetSyntheticTraffic object at 0x7f5b2f2e9ba8>, <m5.objects.GarnetSyntheticTraffic.GarnetSyntheticTraffic object at 0x7f5b2f2e9e80>, <m5.objects.GarnetSyntheticTraffic.GarnetSyntheticTraffic object at 0x7f5b2f2f2198>, <m5.objects.GarnetSyntheticTraffic.GarnetSyntheticTraffic object at 0x7f5b2f2f2470>, <m5.objects.GarnetSyntheticTraffic.GarnetSyntheticTraffic object at 0x7f5b2f2f2748>, <m5.objects.GarnetSyntheticTraffic.GarnetSyntheticTraffic object at 0x7f5b2f2f2a20>, <m5.objects.GarnetSyntheticTraffic.GarnetSyntheticTraffic object at 0x7f5b2f2f2cf8>, <m5.objects.GarnetSyntheticTraffic.GarnetSyntheticTraffic object at 0x7f5b2f2f2fd0>])
ingesting configs/topologies/nr_list_mclb/ns_s_scop_mclb.nrl
ingesting configs/topologies/vn_maps_mclb/ns_s_scop_mclb_hops_4vns.vn
ext_cdc_required = True
