
---------- Begin Simulation Statistics ----------
simSeconds                                   0.002147                       # Number of seconds simulated (Second)
simTicks                                   2147483750                       # Number of ticks simulated (Tick)
finalTick                                  2147483750                       # Number of ticks from beginning of simulation (restored from checkpoints and never reset) (Tick)
simFreq                                  1000000000000                       # The number of ticks per simulated second ((Tick/Second))
hostSeconds                                   3702.62                       # Real time elapsed on the host (Second)
hostTickRate                                   579990                       # The number of ticks simulated per host second (ticks/s) ((Tick/Second))
hostMemory                                     792604                       # Number of bytes of host memory used (Byte)
system.clk_domain.clock                           250                       # Clock period in ticks (Tick)
system.cpu0.power_state.pwrStateResidencyTicks::UNDEFINED   2147483750                       # Cumulative time (in ticks) in various power states (Tick)
system.cpu1.power_state.pwrStateResidencyTicks::UNDEFINED   2147483750                       # Cumulative time (in ticks) in various power states (Tick)
system.cpu10.power_state.pwrStateResidencyTicks::UNDEFINED   2147483750                       # Cumulative time (in ticks) in various power states (Tick)
system.cpu11.power_state.pwrStateResidencyTicks::UNDEFINED   2147483750                       # Cumulative time (in ticks) in various power states (Tick)
system.cpu12.power_state.pwrStateResidencyTicks::UNDEFINED   2147483750                       # Cumulative time (in ticks) in various power states (Tick)
system.cpu13.power_state.pwrStateResidencyTicks::UNDEFINED   2147483750                       # Cumulative time (in ticks) in various power states (Tick)
system.cpu14.power_state.pwrStateResidencyTicks::UNDEFINED   2147483750                       # Cumulative time (in ticks) in various power states (Tick)
system.cpu15.power_state.pwrStateResidencyTicks::UNDEFINED   2147483750                       # Cumulative time (in ticks) in various power states (Tick)
system.cpu16.power_state.pwrStateResidencyTicks::UNDEFINED   2147483750                       # Cumulative time (in ticks) in various power states (Tick)
system.cpu17.power_state.pwrStateResidencyTicks::UNDEFINED   2147483750                       # Cumulative time (in ticks) in various power states (Tick)
system.cpu18.power_state.pwrStateResidencyTicks::UNDEFINED   2147483750                       # Cumulative time (in ticks) in various power states (Tick)
system.cpu19.power_state.pwrStateResidencyTicks::UNDEFINED   2147483750                       # Cumulative time (in ticks) in various power states (Tick)
system.cpu2.power_state.pwrStateResidencyTicks::UNDEFINED   2147483750                       # Cumulative time (in ticks) in various power states (Tick)
system.cpu20.power_state.pwrStateResidencyTicks::UNDEFINED   2147483750                       # Cumulative time (in ticks) in various power states (Tick)
system.cpu21.power_state.pwrStateResidencyTicks::UNDEFINED   2147483750                       # Cumulative time (in ticks) in various power states (Tick)
system.cpu22.power_state.pwrStateResidencyTicks::UNDEFINED   2147483750                       # Cumulative time (in ticks) in various power states (Tick)
system.cpu23.power_state.pwrStateResidencyTicks::UNDEFINED   2147483750                       # Cumulative time (in ticks) in various power states (Tick)
system.cpu24.power_state.pwrStateResidencyTicks::UNDEFINED   2147483750                       # Cumulative time (in ticks) in various power states (Tick)
system.cpu25.power_state.pwrStateResidencyTicks::UNDEFINED   2147483750                       # Cumulative time (in ticks) in various power states (Tick)
system.cpu26.power_state.pwrStateResidencyTicks::UNDEFINED   2147483750                       # Cumulative time (in ticks) in various power states (Tick)
system.cpu27.power_state.pwrStateResidencyTicks::UNDEFINED   2147483750                       # Cumulative time (in ticks) in various power states (Tick)
system.cpu28.power_state.pwrStateResidencyTicks::UNDEFINED   2147483750                       # Cumulative time (in ticks) in various power states (Tick)
system.cpu29.power_state.pwrStateResidencyTicks::UNDEFINED   2147483750                       # Cumulative time (in ticks) in various power states (Tick)
system.cpu3.power_state.pwrStateResidencyTicks::UNDEFINED   2147483750                       # Cumulative time (in ticks) in various power states (Tick)
system.cpu30.power_state.pwrStateResidencyTicks::UNDEFINED   2147483750                       # Cumulative time (in ticks) in various power states (Tick)
system.cpu31.power_state.pwrStateResidencyTicks::UNDEFINED   2147483750                       # Cumulative time (in ticks) in various power states (Tick)
system.cpu32.power_state.pwrStateResidencyTicks::UNDEFINED   2147483750                       # Cumulative time (in ticks) in various power states (Tick)
system.cpu33.power_state.pwrStateResidencyTicks::UNDEFINED   2147483750                       # Cumulative time (in ticks) in various power states (Tick)
system.cpu34.power_state.pwrStateResidencyTicks::UNDEFINED   2147483750                       # Cumulative time (in ticks) in various power states (Tick)
system.cpu35.power_state.pwrStateResidencyTicks::UNDEFINED   2147483750                       # Cumulative time (in ticks) in various power states (Tick)
system.cpu36.power_state.pwrStateResidencyTicks::UNDEFINED   2147483750                       # Cumulative time (in ticks) in various power states (Tick)
system.cpu37.power_state.pwrStateResidencyTicks::UNDEFINED   2147483750                       # Cumulative time (in ticks) in various power states (Tick)
system.cpu38.power_state.pwrStateResidencyTicks::UNDEFINED   2147483750                       # Cumulative time (in ticks) in various power states (Tick)
system.cpu39.power_state.pwrStateResidencyTicks::UNDEFINED   2147483750                       # Cumulative time (in ticks) in various power states (Tick)
system.cpu4.power_state.pwrStateResidencyTicks::UNDEFINED   2147483750                       # Cumulative time (in ticks) in various power states (Tick)
system.cpu5.power_state.pwrStateResidencyTicks::UNDEFINED   2147483750                       # Cumulative time (in ticks) in various power states (Tick)
system.cpu6.power_state.pwrStateResidencyTicks::UNDEFINED   2147483750                       # Cumulative time (in ticks) in various power states (Tick)
system.cpu7.power_state.pwrStateResidencyTicks::UNDEFINED   2147483750                       # Cumulative time (in ticks) in various power states (Tick)
system.cpu8.power_state.pwrStateResidencyTicks::UNDEFINED   2147483750                       # Cumulative time (in ticks) in various power states (Tick)
system.cpu9.power_state.pwrStateResidencyTicks::UNDEFINED   2147483750                       # Cumulative time (in ticks) in various power states (Tick)
system.mem_ctrls0.power_state.pwrStateResidencyTicks::UNDEFINED   2147483750                       # Cumulative time (in ticks) in various power states (Tick)
system.mem_ctrls1.power_state.pwrStateResidencyTicks::UNDEFINED   2147483750                       # Cumulative time (in ticks) in various power states (Tick)
system.mem_ctrls10.power_state.pwrStateResidencyTicks::UNDEFINED   2147483750                       # Cumulative time (in ticks) in various power states (Tick)
system.mem_ctrls100.power_state.pwrStateResidencyTicks::UNDEFINED   2147483750                       # Cumulative time (in ticks) in various power states (Tick)
system.mem_ctrls101.power_state.pwrStateResidencyTicks::UNDEFINED   2147483750                       # Cumulative time (in ticks) in various power states (Tick)
system.mem_ctrls102.power_state.pwrStateResidencyTicks::UNDEFINED   2147483750                       # Cumulative time (in ticks) in various power states (Tick)
system.mem_ctrls103.power_state.pwrStateResidencyTicks::UNDEFINED   2147483750                       # Cumulative time (in ticks) in various power states (Tick)
system.mem_ctrls104.power_state.pwrStateResidencyTicks::UNDEFINED   2147483750                       # Cumulative time (in ticks) in various power states (Tick)
system.mem_ctrls105.power_state.pwrStateResidencyTicks::UNDEFINED   2147483750                       # Cumulative time (in ticks) in various power states (Tick)
system.mem_ctrls106.power_state.pwrStateResidencyTicks::UNDEFINED   2147483750                       # Cumulative time (in ticks) in various power states (Tick)
system.mem_ctrls107.power_state.pwrStateResidencyTicks::UNDEFINED   2147483750                       # Cumulative time (in ticks) in various power states (Tick)
system.mem_ctrls108.power_state.pwrStateResidencyTicks::UNDEFINED   2147483750                       # Cumulative time (in ticks) in various power states (Tick)
system.mem_ctrls109.power_state.pwrStateResidencyTicks::UNDEFINED   2147483750                       # Cumulative time (in ticks) in various power states (Tick)
system.mem_ctrls11.power_state.pwrStateResidencyTicks::UNDEFINED   2147483750                       # Cumulative time (in ticks) in various power states (Tick)
system.mem_ctrls110.power_state.pwrStateResidencyTicks::UNDEFINED   2147483750                       # Cumulative time (in ticks) in various power states (Tick)
system.mem_ctrls111.power_state.pwrStateResidencyTicks::UNDEFINED   2147483750                       # Cumulative time (in ticks) in various power states (Tick)
system.mem_ctrls112.power_state.pwrStateResidencyTicks::UNDEFINED   2147483750                       # Cumulative time (in ticks) in various power states (Tick)
system.mem_ctrls113.power_state.pwrStateResidencyTicks::UNDEFINED   2147483750                       # Cumulative time (in ticks) in various power states (Tick)
system.mem_ctrls114.power_state.pwrStateResidencyTicks::UNDEFINED   2147483750                       # Cumulative time (in ticks) in various power states (Tick)
system.mem_ctrls115.power_state.pwrStateResidencyTicks::UNDEFINED   2147483750                       # Cumulative time (in ticks) in various power states (Tick)
system.mem_ctrls116.power_state.pwrStateResidencyTicks::UNDEFINED   2147483750                       # Cumulative time (in ticks) in various power states (Tick)
system.mem_ctrls117.power_state.pwrStateResidencyTicks::UNDEFINED   2147483750                       # Cumulative time (in ticks) in various power states (Tick)
system.mem_ctrls118.power_state.pwrStateResidencyTicks::UNDEFINED   2147483750                       # Cumulative time (in ticks) in various power states (Tick)
system.mem_ctrls119.power_state.pwrStateResidencyTicks::UNDEFINED   2147483750                       # Cumulative time (in ticks) in various power states (Tick)
system.mem_ctrls12.power_state.pwrStateResidencyTicks::UNDEFINED   2147483750                       # Cumulative time (in ticks) in various power states (Tick)
system.mem_ctrls120.power_state.pwrStateResidencyTicks::UNDEFINED   2147483750                       # Cumulative time (in ticks) in various power states (Tick)
system.mem_ctrls121.power_state.pwrStateResidencyTicks::UNDEFINED   2147483750                       # Cumulative time (in ticks) in various power states (Tick)
system.mem_ctrls122.power_state.pwrStateResidencyTicks::UNDEFINED   2147483750                       # Cumulative time (in ticks) in various power states (Tick)
system.mem_ctrls123.power_state.pwrStateResidencyTicks::UNDEFINED   2147483750                       # Cumulative time (in ticks) in various power states (Tick)
system.mem_ctrls124.power_state.pwrStateResidencyTicks::UNDEFINED   2147483750                       # Cumulative time (in ticks) in various power states (Tick)
system.mem_ctrls125.power_state.pwrStateResidencyTicks::UNDEFINED   2147483750                       # Cumulative time (in ticks) in various power states (Tick)
system.mem_ctrls126.power_state.pwrStateResidencyTicks::UNDEFINED   2147483750                       # Cumulative time (in ticks) in various power states (Tick)
system.mem_ctrls127.power_state.pwrStateResidencyTicks::UNDEFINED   2147483750                       # Cumulative time (in ticks) in various power states (Tick)
system.mem_ctrls128.power_state.pwrStateResidencyTicks::UNDEFINED   2147483750                       # Cumulative time (in ticks) in various power states (Tick)
system.mem_ctrls129.power_state.pwrStateResidencyTicks::UNDEFINED   2147483750                       # Cumulative time (in ticks) in various power states (Tick)
system.mem_ctrls13.power_state.pwrStateResidencyTicks::UNDEFINED   2147483750                       # Cumulative time (in ticks) in various power states (Tick)
system.mem_ctrls130.power_state.pwrStateResidencyTicks::UNDEFINED   2147483750                       # Cumulative time (in ticks) in various power states (Tick)
system.mem_ctrls131.power_state.pwrStateResidencyTicks::UNDEFINED   2147483750                       # Cumulative time (in ticks) in various power states (Tick)
system.mem_ctrls132.power_state.pwrStateResidencyTicks::UNDEFINED   2147483750                       # Cumulative time (in ticks) in various power states (Tick)
system.mem_ctrls133.power_state.pwrStateResidencyTicks::UNDEFINED   2147483750                       # Cumulative time (in ticks) in various power states (Tick)
system.mem_ctrls134.power_state.pwrStateResidencyTicks::UNDEFINED   2147483750                       # Cumulative time (in ticks) in various power states (Tick)
system.mem_ctrls135.power_state.pwrStateResidencyTicks::UNDEFINED   2147483750                       # Cumulative time (in ticks) in various power states (Tick)
system.mem_ctrls136.power_state.pwrStateResidencyTicks::UNDEFINED   2147483750                       # Cumulative time (in ticks) in various power states (Tick)
system.mem_ctrls137.power_state.pwrStateResidencyTicks::UNDEFINED   2147483750                       # Cumulative time (in ticks) in various power states (Tick)
system.mem_ctrls138.power_state.pwrStateResidencyTicks::UNDEFINED   2147483750                       # Cumulative time (in ticks) in various power states (Tick)
system.mem_ctrls139.power_state.pwrStateResidencyTicks::UNDEFINED   2147483750                       # Cumulative time (in ticks) in various power states (Tick)
system.mem_ctrls14.power_state.pwrStateResidencyTicks::UNDEFINED   2147483750                       # Cumulative time (in ticks) in various power states (Tick)
system.mem_ctrls140.power_state.pwrStateResidencyTicks::UNDEFINED   2147483750                       # Cumulative time (in ticks) in various power states (Tick)
system.mem_ctrls141.power_state.pwrStateResidencyTicks::UNDEFINED   2147483750                       # Cumulative time (in ticks) in various power states (Tick)
system.mem_ctrls142.power_state.pwrStateResidencyTicks::UNDEFINED   2147483750                       # Cumulative time (in ticks) in various power states (Tick)
system.mem_ctrls143.power_state.pwrStateResidencyTicks::UNDEFINED   2147483750                       # Cumulative time (in ticks) in various power states (Tick)
system.mem_ctrls144.power_state.pwrStateResidencyTicks::UNDEFINED   2147483750                       # Cumulative time (in ticks) in various power states (Tick)
system.mem_ctrls145.power_state.pwrStateResidencyTicks::UNDEFINED   2147483750                       # Cumulative time (in ticks) in various power states (Tick)
system.mem_ctrls146.power_state.pwrStateResidencyTicks::UNDEFINED   2147483750                       # Cumulative time (in ticks) in various power states (Tick)
system.mem_ctrls147.power_state.pwrStateResidencyTicks::UNDEFINED   2147483750                       # Cumulative time (in ticks) in various power states (Tick)
system.mem_ctrls148.power_state.pwrStateResidencyTicks::UNDEFINED   2147483750                       # Cumulative time (in ticks) in various power states (Tick)
system.mem_ctrls149.power_state.pwrStateResidencyTicks::UNDEFINED   2147483750                       # Cumulative time (in ticks) in various power states (Tick)
system.mem_ctrls15.power_state.pwrStateResidencyTicks::UNDEFINED   2147483750                       # Cumulative time (in ticks) in various power states (Tick)
system.mem_ctrls150.power_state.pwrStateResidencyTicks::UNDEFINED   2147483750                       # Cumulative time (in ticks) in various power states (Tick)
system.mem_ctrls151.power_state.pwrStateResidencyTicks::UNDEFINED   2147483750                       # Cumulative time (in ticks) in various power states (Tick)
system.mem_ctrls152.power_state.pwrStateResidencyTicks::UNDEFINED   2147483750                       # Cumulative time (in ticks) in various power states (Tick)
system.mem_ctrls153.power_state.pwrStateResidencyTicks::UNDEFINED   2147483750                       # Cumulative time (in ticks) in various power states (Tick)
system.mem_ctrls154.power_state.pwrStateResidencyTicks::UNDEFINED   2147483750                       # Cumulative time (in ticks) in various power states (Tick)
system.mem_ctrls155.power_state.pwrStateResidencyTicks::UNDEFINED   2147483750                       # Cumulative time (in ticks) in various power states (Tick)
system.mem_ctrls156.power_state.pwrStateResidencyTicks::UNDEFINED   2147483750                       # Cumulative time (in ticks) in various power states (Tick)
system.mem_ctrls157.power_state.pwrStateResidencyTicks::UNDEFINED   2147483750                       # Cumulative time (in ticks) in various power states (Tick)
system.mem_ctrls158.power_state.pwrStateResidencyTicks::UNDEFINED   2147483750                       # Cumulative time (in ticks) in various power states (Tick)
system.mem_ctrls159.power_state.pwrStateResidencyTicks::UNDEFINED   2147483750                       # Cumulative time (in ticks) in various power states (Tick)
system.mem_ctrls16.power_state.pwrStateResidencyTicks::UNDEFINED   2147483750                       # Cumulative time (in ticks) in various power states (Tick)
system.mem_ctrls17.power_state.pwrStateResidencyTicks::UNDEFINED   2147483750                       # Cumulative time (in ticks) in various power states (Tick)
system.mem_ctrls18.power_state.pwrStateResidencyTicks::UNDEFINED   2147483750                       # Cumulative time (in ticks) in various power states (Tick)
system.mem_ctrls19.power_state.pwrStateResidencyTicks::UNDEFINED   2147483750                       # Cumulative time (in ticks) in various power states (Tick)
system.mem_ctrls2.power_state.pwrStateResidencyTicks::UNDEFINED   2147483750                       # Cumulative time (in ticks) in various power states (Tick)
system.mem_ctrls20.power_state.pwrStateResidencyTicks::UNDEFINED   2147483750                       # Cumulative time (in ticks) in various power states (Tick)
system.mem_ctrls21.power_state.pwrStateResidencyTicks::UNDEFINED   2147483750                       # Cumulative time (in ticks) in various power states (Tick)
system.mem_ctrls22.power_state.pwrStateResidencyTicks::UNDEFINED   2147483750                       # Cumulative time (in ticks) in various power states (Tick)
system.mem_ctrls23.power_state.pwrStateResidencyTicks::UNDEFINED   2147483750                       # Cumulative time (in ticks) in various power states (Tick)
system.mem_ctrls24.power_state.pwrStateResidencyTicks::UNDEFINED   2147483750                       # Cumulative time (in ticks) in various power states (Tick)
system.mem_ctrls25.power_state.pwrStateResidencyTicks::UNDEFINED   2147483750                       # Cumulative time (in ticks) in various power states (Tick)
system.mem_ctrls26.power_state.pwrStateResidencyTicks::UNDEFINED   2147483750                       # Cumulative time (in ticks) in various power states (Tick)
system.mem_ctrls27.power_state.pwrStateResidencyTicks::UNDEFINED   2147483750                       # Cumulative time (in ticks) in various power states (Tick)
system.mem_ctrls28.power_state.pwrStateResidencyTicks::UNDEFINED   2147483750                       # Cumulative time (in ticks) in various power states (Tick)
system.mem_ctrls29.power_state.pwrStateResidencyTicks::UNDEFINED   2147483750                       # Cumulative time (in ticks) in various power states (Tick)
system.mem_ctrls3.power_state.pwrStateResidencyTicks::UNDEFINED   2147483750                       # Cumulative time (in ticks) in various power states (Tick)
system.mem_ctrls30.power_state.pwrStateResidencyTicks::UNDEFINED   2147483750                       # Cumulative time (in ticks) in various power states (Tick)
system.mem_ctrls31.power_state.pwrStateResidencyTicks::UNDEFINED   2147483750                       # Cumulative time (in ticks) in various power states (Tick)
system.mem_ctrls32.power_state.pwrStateResidencyTicks::UNDEFINED   2147483750                       # Cumulative time (in ticks) in various power states (Tick)
system.mem_ctrls33.power_state.pwrStateResidencyTicks::UNDEFINED   2147483750                       # Cumulative time (in ticks) in various power states (Tick)
system.mem_ctrls34.power_state.pwrStateResidencyTicks::UNDEFINED   2147483750                       # Cumulative time (in ticks) in various power states (Tick)
system.mem_ctrls35.power_state.pwrStateResidencyTicks::UNDEFINED   2147483750                       # Cumulative time (in ticks) in various power states (Tick)
system.mem_ctrls36.power_state.pwrStateResidencyTicks::UNDEFINED   2147483750                       # Cumulative time (in ticks) in various power states (Tick)
system.mem_ctrls37.power_state.pwrStateResidencyTicks::UNDEFINED   2147483750                       # Cumulative time (in ticks) in various power states (Tick)
system.mem_ctrls38.power_state.pwrStateResidencyTicks::UNDEFINED   2147483750                       # Cumulative time (in ticks) in various power states (Tick)
system.mem_ctrls39.power_state.pwrStateResidencyTicks::UNDEFINED   2147483750                       # Cumulative time (in ticks) in various power states (Tick)
system.mem_ctrls4.power_state.pwrStateResidencyTicks::UNDEFINED   2147483750                       # Cumulative time (in ticks) in various power states (Tick)
system.mem_ctrls40.power_state.pwrStateResidencyTicks::UNDEFINED   2147483750                       # Cumulative time (in ticks) in various power states (Tick)
system.mem_ctrls41.power_state.pwrStateResidencyTicks::UNDEFINED   2147483750                       # Cumulative time (in ticks) in various power states (Tick)
system.mem_ctrls42.power_state.pwrStateResidencyTicks::UNDEFINED   2147483750                       # Cumulative time (in ticks) in various power states (Tick)
system.mem_ctrls43.power_state.pwrStateResidencyTicks::UNDEFINED   2147483750                       # Cumulative time (in ticks) in various power states (Tick)
system.mem_ctrls44.power_state.pwrStateResidencyTicks::UNDEFINED   2147483750                       # Cumulative time (in ticks) in various power states (Tick)
system.mem_ctrls45.power_state.pwrStateResidencyTicks::UNDEFINED   2147483750                       # Cumulative time (in ticks) in various power states (Tick)
system.mem_ctrls46.power_state.pwrStateResidencyTicks::UNDEFINED   2147483750                       # Cumulative time (in ticks) in various power states (Tick)
system.mem_ctrls47.power_state.pwrStateResidencyTicks::UNDEFINED   2147483750                       # Cumulative time (in ticks) in various power states (Tick)
system.mem_ctrls48.power_state.pwrStateResidencyTicks::UNDEFINED   2147483750                       # Cumulative time (in ticks) in various power states (Tick)
system.mem_ctrls49.power_state.pwrStateResidencyTicks::UNDEFINED   2147483750                       # Cumulative time (in ticks) in various power states (Tick)
system.mem_ctrls5.power_state.pwrStateResidencyTicks::UNDEFINED   2147483750                       # Cumulative time (in ticks) in various power states (Tick)
system.mem_ctrls50.power_state.pwrStateResidencyTicks::UNDEFINED   2147483750                       # Cumulative time (in ticks) in various power states (Tick)
system.mem_ctrls51.power_state.pwrStateResidencyTicks::UNDEFINED   2147483750                       # Cumulative time (in ticks) in various power states (Tick)
system.mem_ctrls52.power_state.pwrStateResidencyTicks::UNDEFINED   2147483750                       # Cumulative time (in ticks) in various power states (Tick)
system.mem_ctrls53.power_state.pwrStateResidencyTicks::UNDEFINED   2147483750                       # Cumulative time (in ticks) in various power states (Tick)
system.mem_ctrls54.power_state.pwrStateResidencyTicks::UNDEFINED   2147483750                       # Cumulative time (in ticks) in various power states (Tick)
system.mem_ctrls55.power_state.pwrStateResidencyTicks::UNDEFINED   2147483750                       # Cumulative time (in ticks) in various power states (Tick)
system.mem_ctrls56.power_state.pwrStateResidencyTicks::UNDEFINED   2147483750                       # Cumulative time (in ticks) in various power states (Tick)
system.mem_ctrls57.power_state.pwrStateResidencyTicks::UNDEFINED   2147483750                       # Cumulative time (in ticks) in various power states (Tick)
system.mem_ctrls58.power_state.pwrStateResidencyTicks::UNDEFINED   2147483750                       # Cumulative time (in ticks) in various power states (Tick)
system.mem_ctrls59.power_state.pwrStateResidencyTicks::UNDEFINED   2147483750                       # Cumulative time (in ticks) in various power states (Tick)
system.mem_ctrls6.power_state.pwrStateResidencyTicks::UNDEFINED   2147483750                       # Cumulative time (in ticks) in various power states (Tick)
system.mem_ctrls60.power_state.pwrStateResidencyTicks::UNDEFINED   2147483750                       # Cumulative time (in ticks) in various power states (Tick)
system.mem_ctrls61.power_state.pwrStateResidencyTicks::UNDEFINED   2147483750                       # Cumulative time (in ticks) in various power states (Tick)
system.mem_ctrls62.power_state.pwrStateResidencyTicks::UNDEFINED   2147483750                       # Cumulative time (in ticks) in various power states (Tick)
system.mem_ctrls63.power_state.pwrStateResidencyTicks::UNDEFINED   2147483750                       # Cumulative time (in ticks) in various power states (Tick)
system.mem_ctrls64.power_state.pwrStateResidencyTicks::UNDEFINED   2147483750                       # Cumulative time (in ticks) in various power states (Tick)
system.mem_ctrls65.power_state.pwrStateResidencyTicks::UNDEFINED   2147483750                       # Cumulative time (in ticks) in various power states (Tick)
system.mem_ctrls66.power_state.pwrStateResidencyTicks::UNDEFINED   2147483750                       # Cumulative time (in ticks) in various power states (Tick)
system.mem_ctrls67.power_state.pwrStateResidencyTicks::UNDEFINED   2147483750                       # Cumulative time (in ticks) in various power states (Tick)
system.mem_ctrls68.power_state.pwrStateResidencyTicks::UNDEFINED   2147483750                       # Cumulative time (in ticks) in various power states (Tick)
system.mem_ctrls69.power_state.pwrStateResidencyTicks::UNDEFINED   2147483750                       # Cumulative time (in ticks) in various power states (Tick)
system.mem_ctrls7.power_state.pwrStateResidencyTicks::UNDEFINED   2147483750                       # Cumulative time (in ticks) in various power states (Tick)
system.mem_ctrls70.power_state.pwrStateResidencyTicks::UNDEFINED   2147483750                       # Cumulative time (in ticks) in various power states (Tick)
system.mem_ctrls71.power_state.pwrStateResidencyTicks::UNDEFINED   2147483750                       # Cumulative time (in ticks) in various power states (Tick)
system.mem_ctrls72.power_state.pwrStateResidencyTicks::UNDEFINED   2147483750                       # Cumulative time (in ticks) in various power states (Tick)
system.mem_ctrls73.power_state.pwrStateResidencyTicks::UNDEFINED   2147483750                       # Cumulative time (in ticks) in various power states (Tick)
system.mem_ctrls74.power_state.pwrStateResidencyTicks::UNDEFINED   2147483750                       # Cumulative time (in ticks) in various power states (Tick)
system.mem_ctrls75.power_state.pwrStateResidencyTicks::UNDEFINED   2147483750                       # Cumulative time (in ticks) in various power states (Tick)
system.mem_ctrls76.power_state.pwrStateResidencyTicks::UNDEFINED   2147483750                       # Cumulative time (in ticks) in various power states (Tick)
system.mem_ctrls77.power_state.pwrStateResidencyTicks::UNDEFINED   2147483750                       # Cumulative time (in ticks) in various power states (Tick)
system.mem_ctrls78.power_state.pwrStateResidencyTicks::UNDEFINED   2147483750                       # Cumulative time (in ticks) in various power states (Tick)
system.mem_ctrls79.power_state.pwrStateResidencyTicks::UNDEFINED   2147483750                       # Cumulative time (in ticks) in various power states (Tick)
system.mem_ctrls8.power_state.pwrStateResidencyTicks::UNDEFINED   2147483750                       # Cumulative time (in ticks) in various power states (Tick)
system.mem_ctrls80.power_state.pwrStateResidencyTicks::UNDEFINED   2147483750                       # Cumulative time (in ticks) in various power states (Tick)
system.mem_ctrls81.power_state.pwrStateResidencyTicks::UNDEFINED   2147483750                       # Cumulative time (in ticks) in various power states (Tick)
system.mem_ctrls82.power_state.pwrStateResidencyTicks::UNDEFINED   2147483750                       # Cumulative time (in ticks) in various power states (Tick)
system.mem_ctrls83.power_state.pwrStateResidencyTicks::UNDEFINED   2147483750                       # Cumulative time (in ticks) in various power states (Tick)
system.mem_ctrls84.power_state.pwrStateResidencyTicks::UNDEFINED   2147483750                       # Cumulative time (in ticks) in various power states (Tick)
system.mem_ctrls85.power_state.pwrStateResidencyTicks::UNDEFINED   2147483750                       # Cumulative time (in ticks) in various power states (Tick)
system.mem_ctrls86.power_state.pwrStateResidencyTicks::UNDEFINED   2147483750                       # Cumulative time (in ticks) in various power states (Tick)
system.mem_ctrls87.power_state.pwrStateResidencyTicks::UNDEFINED   2147483750                       # Cumulative time (in ticks) in various power states (Tick)
system.mem_ctrls88.power_state.pwrStateResidencyTicks::UNDEFINED   2147483750                       # Cumulative time (in ticks) in various power states (Tick)
system.mem_ctrls89.power_state.pwrStateResidencyTicks::UNDEFINED   2147483750                       # Cumulative time (in ticks) in various power states (Tick)
system.mem_ctrls9.power_state.pwrStateResidencyTicks::UNDEFINED   2147483750                       # Cumulative time (in ticks) in various power states (Tick)
system.mem_ctrls90.power_state.pwrStateResidencyTicks::UNDEFINED   2147483750                       # Cumulative time (in ticks) in various power states (Tick)
system.mem_ctrls91.power_state.pwrStateResidencyTicks::UNDEFINED   2147483750                       # Cumulative time (in ticks) in various power states (Tick)
system.mem_ctrls92.power_state.pwrStateResidencyTicks::UNDEFINED   2147483750                       # Cumulative time (in ticks) in various power states (Tick)
system.mem_ctrls93.power_state.pwrStateResidencyTicks::UNDEFINED   2147483750                       # Cumulative time (in ticks) in various power states (Tick)
system.mem_ctrls94.power_state.pwrStateResidencyTicks::UNDEFINED   2147483750                       # Cumulative time (in ticks) in various power states (Tick)
system.mem_ctrls95.power_state.pwrStateResidencyTicks::UNDEFINED   2147483750                       # Cumulative time (in ticks) in various power states (Tick)
system.mem_ctrls96.power_state.pwrStateResidencyTicks::UNDEFINED   2147483750                       # Cumulative time (in ticks) in various power states (Tick)
system.mem_ctrls97.power_state.pwrStateResidencyTicks::UNDEFINED   2147483750                       # Cumulative time (in ticks) in various power states (Tick)
system.mem_ctrls98.power_state.pwrStateResidencyTicks::UNDEFINED   2147483750                       # Cumulative time (in ticks) in various power states (Tick)
system.mem_ctrls99.power_state.pwrStateResidencyTicks::UNDEFINED   2147483750                       # Cumulative time (in ticks) in various power states (Tick)
system.ruby.m_outstandReqHistSeqr::bucket_size            1                       (Unspecified)
system.ruby.m_outstandReqHistSeqr::max_bucket            9                       (Unspecified)
system.ruby.m_outstandReqHistSeqr::samples     25738941                       (Unspecified)
system.ruby.m_outstandReqHistSeqr::mean             1                       (Unspecified)
system.ruby.m_outstandReqHistSeqr::gmean            1                       (Unspecified)
system.ruby.m_outstandReqHistSeqr        |           0      0.00%      0.00% |    25738941    100.00%    100.00% |           0      0.00%    100.00% |           0      0.00%    100.00% |           0      0.00%    100.00% |           0      0.00%    100.00% |           0      0.00%    100.00% |           0      0.00%    100.00% |           0      0.00%    100.00% |           0      0.00%    100.00% (Unspecified)
system.ruby.m_outstandReqHistSeqr::total     25738941                       (Unspecified)
system.ruby.m_latencyHistSeqr::bucket_size            1                       (Unspecified)
system.ruby.m_latencyHistSeqr::max_bucket            9                       (Unspecified)
system.ruby.m_latencyHistSeqr::samples       25738939                       (Unspecified)
system.ruby.m_latencyHistSeqr::mean                 1                       (Unspecified)
system.ruby.m_latencyHistSeqr::gmean                1                       (Unspecified)
system.ruby.m_latencyHistSeqr            |           0      0.00%      0.00% |    25738939    100.00%    100.00% |           0      0.00%    100.00% |           0      0.00%    100.00% |           0      0.00%    100.00% |           0      0.00%    100.00% |           0      0.00%    100.00% |           0      0.00%    100.00% |           0      0.00%    100.00% |           0      0.00%    100.00% (Unspecified)
system.ruby.m_latencyHistSeqr::total         25738939                       (Unspecified)
system.ruby.m_hitLatencyHistSeqr::bucket_size            1                       (Unspecified)
system.ruby.m_hitLatencyHistSeqr::max_bucket            9                       (Unspecified)
system.ruby.m_hitLatencyHistSeqr::samples     25738939                       (Unspecified)
system.ruby.m_hitLatencyHistSeqr::mean              1                       (Unspecified)
system.ruby.m_hitLatencyHistSeqr::gmean             1                       (Unspecified)
system.ruby.m_hitLatencyHistSeqr         |           0      0.00%      0.00% |    25738939    100.00%    100.00% |           0      0.00%    100.00% |           0      0.00%    100.00% |           0      0.00%    100.00% |           0      0.00%    100.00% |           0      0.00%    100.00% |           0      0.00%    100.00% |           0      0.00%    100.00% |           0      0.00%    100.00% (Unspecified)
system.ruby.m_hitLatencyHistSeqr::total      25738939                       (Unspecified)
system.ruby.Directory_Controller.Receive_Request |       80112      0.62%      0.62% |       80470      0.63%      1.25% |       80412      0.62%      1.87% |       80321      0.62%      2.50% |       80472      0.63%      3.12% |       80633      0.63%      3.75% |       80425      0.62%      4.37% |       80808      0.63%      5.00% |       81023      0.63%      5.63% |       80255      0.62%      6.25% |       80060      0.62%      6.88% |       80382      0.62%      7.50% |       80262      0.62%      8.13% |       80152      0.62%      8.75% |       80303      0.62%      9.37% |       80057      0.62%      9.99% |       80316      0.62%     10.62% |       80705      0.63%     11.25% |       80551      0.63%     11.87% |       80500      0.63%     12.50% |       80931      0.63%     13.13% |       80334      0.62%     13.75% |       80784      0.63%     14.38% |       80215      0.62%     15.00% |       80275      0.62%     15.62% |       80286      0.62%     16.25% |       80402      0.62%     16.87% |       80942      0.63%     17.50% |       80465      0.63%     18.13% |       80927      0.63%     18.76% |       80498      0.63%     19.38% |       80539      0.63%     20.01% |       80738      0.63%     20.63% |       80383      0.62%     21.26% |       80162      0.62%     21.88% |       80286      0.62%     22.51% |       80196      0.62%     23.13% |       80080      0.62%     23.75% |       80301      0.62%     24.38% |       80290      0.62%     25.00% |       80557      0.63%     25.63% |       80213      0.62%     26.25% |       80577      0.63%     26.87% |       80649      0.63%     27.50% |       80135      0.62%     28.12% |       80636      0.63%     28.75% |       80401      0.62%     29.38% |       80257      0.62%     30.00% |       80301      0.62%     30.62% |       80662      0.63%     31.25% |       80480      0.63%     31.88% |       80357      0.62%     32.50% |       80326      0.62%     33.12% |       80464      0.63%     33.75% |       80361      0.62%     34.37% |       80572      0.63%     35.00% |       80015      0.62%     35.62% |       80343      0.62%     36.25% |       80407      0.62%     36.87% |       80635      0.63%     37.50% |       80534      0.63%     38.12% |       79895      0.62%     38.74% |       80484      0.63%     39.37% |       80556      0.63%     40.00% |       80445      0.63%     40.62% |       80476      0.63%     41.25% |       80569      0.63%     41.87% |       80402      0.62%     42.50% |       79977      0.62%     43.12% |       80352      0.62%     43.74% |       80567      0.63%     44.37% |       80715      0.63%     45.00% |       80613      0.63%     45.62% |       80205      0.62%     46.25% |       80262      0.62%     46.87% |       80734      0.63%     47.50% |       80956      0.63%     48.13% |       80250      0.62%     48.75% |       80322      0.62%     49.37% |       80452      0.63%     50.00% |       80171      0.62%     50.62% |       80129      0.62%     51.24% |       80074      0.62%     51.87% |       80640      0.63%     52.49% |       80213      0.62%     53.12% |       80569      0.63%     53.74% |       80273      0.62%     54.37% |       80726      0.63%     54.99% |       81144      0.63%     55.62% |       80247      0.62%     56.25% |       80380      0.62%     56.87% |       80687      0.63%     57.50% |       80822      0.63%     58.13% |       80370      0.62%     58.75% |       80782      0.63%     59.38% |       80194      0.62%     60.00% |       80600      0.63%     60.63% |       80503      0.63%     61.25% |       80445      0.63%     61.88% |       80359      0.62%     62.50% |       80639      0.63%     63.13% |       80093      0.62%     63.75% |       80359      0.62%     64.38% |       80389      0.62%     65.00% |       80464      0.63%     65.63% |       80256      0.62%     66.25% |       80640      0.63%     66.88% |       80560      0.63%     67.50% |       80222      0.62%     68.13% |       80377      0.62%     68.75% |       80557      0.63%     69.38% |       80579      0.63%     70.00% |       80518      0.63%     70.63% |       80136      0.62%     71.25% |       80735      0.63%     71.88% |       80186      0.62%     72.50% |       80649      0.63%     73.13% |       80178      0.62%     73.75% |       80583      0.63%     74.38% |       80074      0.62%     75.00% |       79535      0.62%     75.62% |       80453      0.63%     76.24% |       80450      0.63%     76.87% |       80523      0.63%     77.49% |       80142      0.62%     78.12% |       80546      0.63%     78.74% |       80114      0.62%     79.36% |       80592      0.63%     79.99% |       80485      0.63%     80.62% |       80498      0.63%     81.24% |       80441      0.63%     81.87% |       80666      0.63%     82.49% |       79947      0.62%     83.11% |       80609      0.63%     83.74% |       80174      0.62%     84.36% |       80300      0.62%     84.99% |       79726      0.62%     85.61% |       79951      0.62%     86.23% |       80581      0.63%     86.86% |       80919      0.63%     87.48% |       80801      0.63%     88.11% |       80536      0.63%     88.74% |       80259      0.62%     89.36% |       80527      0.63%     89.99% |       79581      0.62%     90.61% |       80402      0.62%     91.23% |       80479      0.63%     91.86% |       80419      0.62%     92.48% |       80256      0.62%     93.10% |       80791      0.63%     93.73% |       80679      0.63%     94.36% |       80328      0.62%     94.98% |       80789      0.63%     95.61% |       80870      0.63%     96.24% |       80692      0.63%     96.87% |       81086      0.63%     97.50% |       80449      0.63%     98.12% |       80315      0.62%     98.75% |       80952      0.63%     99.37% |       80510      0.63%    100.00% (Unspecified)
system.ruby.Directory_Controller.Receive_Request::total     12869262                       (Unspecified)
system.ruby.Directory_Controller.Receive_Response |       80316      0.62%      0.62% |       80349      0.62%      1.25% |       80917      0.63%      1.88% |       80168      0.62%      2.50% |       80213      0.62%      3.12% |       80428      0.62%      3.75% |       80163      0.62%      4.37% |       80729      0.63%      5.00% |       80971      0.63%      5.63% |       80490      0.63%      6.25% |       80582      0.63%      6.88% |       80821      0.63%      7.51% |       80392      0.62%      8.13% |       80469      0.63%      8.76% |       80359      0.62%      9.38% |       79861      0.62%     10.00% |       79975      0.62%     10.62% |       80184      0.62%     11.25% |       80181      0.62%     11.87% |       79914      0.62%     12.49% |       79962      0.62%     13.11% |       80650      0.63%     13.74% |       80500      0.63%     14.36% |       80256      0.62%     14.99% |       80558      0.63%     15.61% |       80011      0.62%     16.24% |       80851      0.63%     16.86% |       80323      0.62%     17.49% |       79850      0.62%     18.11% |       80526      0.63%     18.73% |       80453      0.63%     19.36% |       80229      0.62%     19.98% |       80207      0.62%     20.61% |       80676      0.63%     21.23% |       80826      0.63%     21.86% |       80023      0.62%     22.48% |       80600      0.63%     23.11% |       80403      0.62%     23.73% |       80735      0.63%     24.36% |       80417      0.62%     24.99% |       80536      0.63%     25.61% |       80408      0.62%     26.24% |       80347      0.62%     26.86% |       80491      0.63%     27.49% |       80644      0.63%     28.11% |       80834      0.63%     28.74% |       80635      0.63%     29.37% |       80942      0.63%     30.00% |       80317      0.62%     30.62% |       79734      0.62%     31.24% |       80402      0.62%     31.86% |       80224      0.62%     32.49% |       80323      0.62%     33.11% |       80810      0.63%     33.74% |       80509      0.63%     34.37% |       80800      0.63%     34.99% |       80138      0.62%     35.62% |       79983      0.62%     36.24% |       81043      0.63%     36.87% |       80740      0.63%     37.49% |       80276      0.62%     38.12% |       80218      0.62%     38.74% |       80495      0.63%     39.37% |       80566      0.63%     39.99% |       80206      0.62%     40.62% |       80549      0.63%     41.24% |       80603      0.63%     41.87% |       80148      0.62%     42.49% |       80534      0.63%     43.12% |       80372      0.62%     43.74% |       80657      0.63%     44.37% |       80190      0.62%     44.99% |       80311      0.62%     45.62% |       79689      0.62%     46.23% |       80737      0.63%     46.86% |       80065      0.62%     47.48% |       80368      0.62%     48.11% |       80650      0.63%     48.74% |       80282      0.62%     49.36% |       79980      0.62%     49.98% |       80565      0.63%     50.61% |       80669      0.63%     51.23% |       80432      0.62%     51.86% |       80343      0.62%     52.48% |       80383      0.62%     53.11% |       80706      0.63%     53.73% |       80427      0.62%     54.36% |       80448      0.63%     54.98% |       80607      0.63%     55.61% |       80410      0.62%     56.24% |       79988      0.62%     56.86% |       79956      0.62%     57.48% |       80261      0.62%     58.10% |       80516      0.63%     58.73% |       80398      0.62%     59.35% |       80392      0.62%     59.98% |       80598      0.63%     60.60% |       80802      0.63%     61.23% |       80452      0.63%     61.86% |       80531      0.63%     62.48% |       80724      0.63%     63.11% |       80962      0.63%     63.74% |       80790      0.63%     64.37% |       80378      0.62%     64.99% |       80375      0.62%     65.62% |       81138      0.63%     66.25% |       80382      0.62%     66.87% |       80582      0.63%     67.50% |       80293      0.62%     68.12% |       80331      0.62%     68.74% |       80312      0.62%     69.37% |       80552      0.63%     69.99% |       80899      0.63%     70.62% |       80622      0.63%     71.25% |       80667      0.63%     71.88% |       80779      0.63%     72.50% |       80517      0.63%     73.13% |       80361      0.62%     73.75% |       80736      0.63%     74.38% |       80289      0.62%     75.01% |       80557      0.63%     75.63% |       80339      0.62%     76.26% |       80275      0.62%     76.88% |       80376      0.62%     77.50% |       80543      0.63%     78.13% |       80258      0.62%     78.75% |       80373      0.62%     79.38% |       80236      0.62%     80.00% |       80603      0.63%     80.63% |       80414      0.62%     81.25% |       80502      0.63%     81.88% |       80361      0.62%     82.50% |       80561      0.63%     83.13% |       80554      0.63%     83.75% |       80091      0.62%     84.38% |       80412      0.62%     85.00% |       80795      0.63%     85.63% |       80145      0.62%     86.25% |       80328      0.62%     86.88% |       80678      0.63%     87.50% |       80394      0.62%     88.13% |       80102      0.62%     88.75% |       80355      0.62%     89.37% |       80525      0.63%     90.00% |       79980      0.62%     90.62% |       80831      0.63%     91.25% |       80551      0.63%     91.88% |       80610      0.63%     92.50% |       80206      0.62%     93.12% |       80546      0.63%     93.75% |       80298      0.62%     94.37% |       80615      0.63%     95.00% |       79979      0.62%     95.62% |       80332      0.62%     96.25% |       80526      0.63%     96.87% |       80442      0.63%     97.50% |       80516      0.63%     98.12% |       80267      0.62%     98.75% |       80808      0.63%     99.37% |       80457      0.63%    100.00% (Unspecified)
system.ruby.Directory_Controller.Receive_Response::total     12869608                       (Unspecified)
system.ruby.Directory_Controller.I.Receive_Request |       80112      0.62%      0.62% |       80470      0.63%      1.25% |       80412      0.62%      1.87% |       80321      0.62%      2.50% |       80472      0.63%      3.12% |       80633      0.63%      3.75% |       80425      0.62%      4.37% |       80808      0.63%      5.00% |       81023      0.63%      5.63% |       80255      0.62%      6.25% |       80060      0.62%      6.88% |       80382      0.62%      7.50% |       80262      0.62%      8.13% |       80152      0.62%      8.75% |       80303      0.62%      9.37% |       80057      0.62%      9.99% |       80316      0.62%     10.62% |       80705      0.63%     11.25% |       80551      0.63%     11.87% |       80500      0.63%     12.50% |       80931      0.63%     13.13% |       80334      0.62%     13.75% |       80784      0.63%     14.38% |       80215      0.62%     15.00% |       80275      0.62%     15.62% |       80286      0.62%     16.25% |       80402      0.62%     16.87% |       80942      0.63%     17.50% |       80465      0.63%     18.13% |       80927      0.63%     18.76% |       80498      0.63%     19.38% |       80539      0.63%     20.01% |       80738      0.63%     20.63% |       80383      0.62%     21.26% |       80162      0.62%     21.88% |       80286      0.62%     22.51% |       80196      0.62%     23.13% |       80080      0.62%     23.75% |       80301      0.62%     24.38% |       80290      0.62%     25.00% |       80557      0.63%     25.63% |       80213      0.62%     26.25% |       80577      0.63%     26.87% |       80649      0.63%     27.50% |       80135      0.62%     28.12% |       80636      0.63%     28.75% |       80401      0.62%     29.38% |       80257      0.62%     30.00% |       80301      0.62%     30.62% |       80662      0.63%     31.25% |       80480      0.63%     31.88% |       80357      0.62%     32.50% |       80326      0.62%     33.12% |       80464      0.63%     33.75% |       80361      0.62%     34.37% |       80572      0.63%     35.00% |       80015      0.62%     35.62% |       80343      0.62%     36.25% |       80407      0.62%     36.87% |       80635      0.63%     37.50% |       80534      0.63%     38.12% |       79895      0.62%     38.74% |       80484      0.63%     39.37% |       80556      0.63%     40.00% |       80445      0.63%     40.62% |       80476      0.63%     41.25% |       80569      0.63%     41.87% |       80402      0.62%     42.50% |       79977      0.62%     43.12% |       80352      0.62%     43.74% |       80567      0.63%     44.37% |       80715      0.63%     45.00% |       80613      0.63%     45.62% |       80205      0.62%     46.25% |       80262      0.62%     46.87% |       80734      0.63%     47.50% |       80956      0.63%     48.13% |       80250      0.62%     48.75% |       80322      0.62%     49.37% |       80452      0.63%     50.00% |       80171      0.62%     50.62% |       80129      0.62%     51.24% |       80074      0.62%     51.87% |       80640      0.63%     52.49% |       80213      0.62%     53.12% |       80569      0.63%     53.74% |       80273      0.62%     54.37% |       80726      0.63%     54.99% |       81144      0.63%     55.62% |       80247      0.62%     56.25% |       80380      0.62%     56.87% |       80687      0.63%     57.50% |       80822      0.63%     58.13% |       80370      0.62%     58.75% |       80782      0.63%     59.38% |       80194      0.62%     60.00% |       80600      0.63%     60.63% |       80503      0.63%     61.25% |       80445      0.63%     61.88% |       80359      0.62%     62.50% |       80639      0.63%     63.13% |       80093      0.62%     63.75% |       80359      0.62%     64.38% |       80389      0.62%     65.00% |       80464      0.63%     65.63% |       80256      0.62%     66.25% |       80640      0.63%     66.88% |       80560      0.63%     67.50% |       80222      0.62%     68.13% |       80377      0.62%     68.75% |       80557      0.63%     69.38% |       80579      0.63%     70.00% |       80518      0.63%     70.63% |       80136      0.62%     71.25% |       80735      0.63%     71.88% |       80186      0.62%     72.50% |       80649      0.63%     73.13% |       80178      0.62%     73.75% |       80583      0.63%     74.38% |       80074      0.62%     75.00% |       79535      0.62%     75.62% |       80453      0.63%     76.24% |       80450      0.63%     76.87% |       80523      0.63%     77.49% |       80142      0.62%     78.12% |       80546      0.63%     78.74% |       80114      0.62%     79.36% |       80592      0.63%     79.99% |       80485      0.63%     80.62% |       80498      0.63%     81.24% |       80441      0.63%     81.87% |       80666      0.63%     82.49% |       79947      0.62%     83.11% |       80609      0.63%     83.74% |       80174      0.62%     84.36% |       80300      0.62%     84.99% |       79726      0.62%     85.61% |       79951      0.62%     86.23% |       80581      0.63%     86.86% |       80919      0.63%     87.48% |       80801      0.63%     88.11% |       80536      0.63%     88.74% |       80259      0.62%     89.36% |       80527      0.63%     89.99% |       79581      0.62%     90.61% |       80402      0.62%     91.23% |       80479      0.63%     91.86% |       80419      0.62%     92.48% |       80256      0.62%     93.10% |       80791      0.63%     93.73% |       80679      0.63%     94.36% |       80328      0.62%     94.98% |       80789      0.63%     95.61% |       80870      0.63%     96.24% |       80692      0.63%     96.87% |       81086      0.63%     97.50% |       80449      0.63%     98.12% |       80315      0.62%     98.75% |       80952      0.63%     99.37% |       80510      0.63%    100.00% (Unspecified)
system.ruby.Directory_Controller.I.Receive_Request::total     12869262                       (Unspecified)
system.ruby.Directory_Controller.I.Receive_Response |       80316      0.62%      0.62% |       80349      0.62%      1.25% |       80917      0.63%      1.88% |       80168      0.62%      2.50% |       80213      0.62%      3.12% |       80428      0.62%      3.75% |       80163      0.62%      4.37% |       80729      0.63%      5.00% |       80971      0.63%      5.63% |       80490      0.63%      6.25% |       80582      0.63%      6.88% |       80821      0.63%      7.51% |       80392      0.62%      8.13% |       80469      0.63%      8.76% |       80359      0.62%      9.38% |       79861      0.62%     10.00% |       79975      0.62%     10.62% |       80184      0.62%     11.25% |       80181      0.62%     11.87% |       79914      0.62%     12.49% |       79962      0.62%     13.11% |       80650      0.63%     13.74% |       80500      0.63%     14.36% |       80256      0.62%     14.99% |       80558      0.63%     15.61% |       80011      0.62%     16.24% |       80851      0.63%     16.86% |       80323      0.62%     17.49% |       79850      0.62%     18.11% |       80526      0.63%     18.73% |       80453      0.63%     19.36% |       80229      0.62%     19.98% |       80207      0.62%     20.61% |       80676      0.63%     21.23% |       80826      0.63%     21.86% |       80023      0.62%     22.48% |       80600      0.63%     23.11% |       80403      0.62%     23.73% |       80735      0.63%     24.36% |       80417      0.62%     24.99% |       80536      0.63%     25.61% |       80408      0.62%     26.24% |       80347      0.62%     26.86% |       80491      0.63%     27.49% |       80644      0.63%     28.11% |       80834      0.63%     28.74% |       80635      0.63%     29.37% |       80942      0.63%     30.00% |       80317      0.62%     30.62% |       79734      0.62%     31.24% |       80402      0.62%     31.86% |       80224      0.62%     32.49% |       80323      0.62%     33.11% |       80810      0.63%     33.74% |       80509      0.63%     34.37% |       80800      0.63%     34.99% |       80138      0.62%     35.62% |       79983      0.62%     36.24% |       81043      0.63%     36.87% |       80740      0.63%     37.49% |       80276      0.62%     38.12% |       80218      0.62%     38.74% |       80495      0.63%     39.37% |       80566      0.63%     39.99% |       80206      0.62%     40.62% |       80549      0.63%     41.24% |       80603      0.63%     41.87% |       80148      0.62%     42.49% |       80534      0.63%     43.12% |       80372      0.62%     43.74% |       80657      0.63%     44.37% |       80190      0.62%     44.99% |       80311      0.62%     45.62% |       79689      0.62%     46.23% |       80737      0.63%     46.86% |       80065      0.62%     47.48% |       80368      0.62%     48.11% |       80650      0.63%     48.74% |       80282      0.62%     49.36% |       79980      0.62%     49.98% |       80565      0.63%     50.61% |       80669      0.63%     51.23% |       80432      0.62%     51.86% |       80343      0.62%     52.48% |       80383      0.62%     53.11% |       80706      0.63%     53.73% |       80427      0.62%     54.36% |       80448      0.63%     54.98% |       80607      0.63%     55.61% |       80410      0.62%     56.24% |       79988      0.62%     56.86% |       79956      0.62%     57.48% |       80261      0.62%     58.10% |       80516      0.63%     58.73% |       80398      0.62%     59.35% |       80392      0.62%     59.98% |       80598      0.63%     60.60% |       80802      0.63%     61.23% |       80452      0.63%     61.86% |       80531      0.63%     62.48% |       80724      0.63%     63.11% |       80962      0.63%     63.74% |       80790      0.63%     64.37% |       80378      0.62%     64.99% |       80375      0.62%     65.62% |       81138      0.63%     66.25% |       80382      0.62%     66.87% |       80582      0.63%     67.50% |       80293      0.62%     68.12% |       80331      0.62%     68.74% |       80312      0.62%     69.37% |       80552      0.63%     69.99% |       80899      0.63%     70.62% |       80622      0.63%     71.25% |       80667      0.63%     71.88% |       80779      0.63%     72.50% |       80517      0.63%     73.13% |       80361      0.62%     73.75% |       80736      0.63%     74.38% |       80289      0.62%     75.01% |       80557      0.63%     75.63% |       80339      0.62%     76.26% |       80275      0.62%     76.88% |       80376      0.62%     77.50% |       80543      0.63%     78.13% |       80258      0.62%     78.75% |       80373      0.62%     79.38% |       80236      0.62%     80.00% |       80603      0.63%     80.63% |       80414      0.62%     81.25% |       80502      0.63%     81.88% |       80361      0.62%     82.50% |       80561      0.63%     83.13% |       80554      0.63%     83.75% |       80091      0.62%     84.38% |       80412      0.62%     85.00% |       80795      0.63%     85.63% |       80145      0.62%     86.25% |       80328      0.62%     86.88% |       80678      0.63%     87.50% |       80394      0.62%     88.13% |       80102      0.62%     88.75% |       80355      0.62%     89.37% |       80525      0.63%     90.00% |       79980      0.62%     90.62% |       80831      0.63%     91.25% |       80551      0.63%     91.88% |       80610      0.63%     92.50% |       80206      0.62%     93.12% |       80546      0.63%     93.75% |       80298      0.62%     94.37% |       80615      0.63%     95.00% |       79979      0.62%     95.62% |       80332      0.62%     96.25% |       80526      0.63%     96.87% |       80442      0.63%     97.50% |       80516      0.63%     98.12% |       80267      0.62%     98.75% |       80808      0.63%     99.37% |       80457      0.63%    100.00% (Unspecified)
system.ruby.Directory_Controller.I.Receive_Response::total     12869608                       (Unspecified)
system.ruby.L1Cache_Controller.Request   |      321851      2.50%      2.50% |      322168      2.50%      5.00% |      322029      2.50%      7.51% |      322190      2.50%     10.01% |      322105      2.50%     12.51% |      322191      2.50%     15.02% |      320745      2.49%     17.51% |      320987      2.49%     20.00% |      320871      2.49%     22.50% |      322612      2.51%     25.00% |      321174      2.50%     27.50% |      321132      2.50%     29.99% |      321978      2.50%     32.50% |      322087      2.50%     35.00% |      321460      2.50%     37.50% |      320631      2.49%     39.99% |      322120      2.50%     42.49% |      321318      2.50%     44.99% |      322137      2.50%     47.49% |      321772      2.50%     49.99% |      322106      2.50%     52.49% |      321608      2.50%     54.99% |      322129      2.50%     57.50% |      322149      2.50%     60.00% |      321692      2.50%     62.50% |      321628      2.50%     65.00% |      321497      2.50%     67.50% |      321825      2.50%     70.00% |      322568      2.51%     72.50% |      321473      2.50%     75.00% |      321637      2.50%     77.50% |      321558      2.50%     80.00% |      321989      2.50%     82.50% |      322261      2.50%     85.01% |      322263      2.50%     87.51% |      321295      2.50%     90.01% |      321246      2.50%     92.50% |      320905      2.49%     95.00% |      321968      2.50%     97.50% |      321936      2.50%    100.00% (Unspecified)
system.ruby.L1Cache_Controller.Request::total     12869291                       (Unspecified)
system.ruby.L1Cache_Controller.Response  |      321481      2.50%      2.50% |      321249      2.50%      4.99% |      322608      2.51%      7.50% |      321482      2.50%     10.00% |      320619      2.49%     12.49% |      321722      2.50%     14.99% |      321407      2.50%     17.49% |      321263      2.50%     19.98% |      321349      2.50%     22.48% |      322544      2.51%     24.99% |      321812      2.50%     27.49% |      321759      2.50%     29.99% |      322606      2.51%     32.49% |      321531      2.50%     34.99% |      321578      2.50%     37.49% |      322038      2.50%     39.99% |      321555      2.50%     42.49% |      321382      2.50%     44.99% |      322468      2.51%     47.50% |      321753      2.50%     50.00% |      321601      2.50%     52.49% |      321425      2.50%     54.99% |      321863      2.50%     57.49% |      321917      2.50%     59.99% |      320935      2.49%     62.49% |      321848      2.50%     64.99% |      321518      2.50%     67.49% |      321784      2.50%     69.99% |      321071      2.49%     72.48% |      322469      2.51%     74.99% |      322508      2.51%     77.49% |      321793      2.50%     79.99% |      321364      2.50%     82.49% |      322688      2.51%     85.00% |      321725      2.50%     87.50% |      321874      2.50%     90.00% |      321226      2.50%     92.50% |      321537      2.50%     94.99% |      321985      2.50%     97.50% |      322311      2.50%    100.00% (Unspecified)
system.ruby.L1Cache_Controller.Response::total     12869648                       (Unspecified)
system.ruby.L1Cache_Controller.I.Request |      321851      2.50%      2.50% |      322168      2.50%      5.00% |      322029      2.50%      7.51% |      322190      2.50%     10.01% |      322105      2.50%     12.51% |      322191      2.50%     15.02% |      320745      2.49%     17.51% |      320987      2.49%     20.00% |      320871      2.49%     22.50% |      322612      2.51%     25.00% |      321174      2.50%     27.50% |      321132      2.50%     29.99% |      321978      2.50%     32.50% |      322087      2.50%     35.00% |      321460      2.50%     37.50% |      320631      2.49%     39.99% |      322120      2.50%     42.49% |      321318      2.50%     44.99% |      322137      2.50%     47.49% |      321772      2.50%     49.99% |      322106      2.50%     52.49% |      321608      2.50%     54.99% |      322129      2.50%     57.50% |      322149      2.50%     60.00% |      321692      2.50%     62.50% |      321628      2.50%     65.00% |      321497      2.50%     67.50% |      321825      2.50%     70.00% |      322568      2.51%     72.50% |      321473      2.50%     75.00% |      321637      2.50%     77.50% |      321558      2.50%     80.00% |      321989      2.50%     82.50% |      322261      2.50%     85.01% |      322263      2.50%     87.51% |      321295      2.50%     90.01% |      321246      2.50%     92.50% |      320905      2.49%     95.00% |      321968      2.50%     97.50% |      321936      2.50%    100.00% (Unspecified)
system.ruby.L1Cache_Controller.I.Request::total     12869291                       (Unspecified)
system.ruby.L1Cache_Controller.I.Response |      321481      2.50%      2.50% |      321249      2.50%      4.99% |      322608      2.51%      7.50% |      321482      2.50%     10.00% |      320619      2.49%     12.49% |      321722      2.50%     14.99% |      321407      2.50%     17.49% |      321263      2.50%     19.98% |      321349      2.50%     22.48% |      322544      2.51%     24.99% |      321812      2.50%     27.49% |      321759      2.50%     29.99% |      322606      2.51%     32.49% |      321531      2.50%     34.99% |      321578      2.50%     37.49% |      322038      2.50%     39.99% |      321555      2.50%     42.49% |      321382      2.50%     44.99% |      322468      2.51%     47.50% |      321753      2.50%     50.00% |      321601      2.50%     52.49% |      321425      2.50%     54.99% |      321863      2.50%     57.49% |      321917      2.50%     59.99% |      320935      2.49%     62.49% |      321848      2.50%     64.99% |      321518      2.50%     67.49% |      321784      2.50%     69.99% |      321071      2.49%     72.48% |      322469      2.51%     74.99% |      322508      2.51%     77.49% |      321793      2.50%     79.99% |      321364      2.50%     82.49% |      322688      2.51%     85.00% |      321725      2.50%     87.50% |      321874      2.50%     90.00% |      321226      2.50%     92.50% |      321537      2.50%     94.99% |      321985      2.50%     97.50% |      322311      2.50%    100.00% (Unspecified)
system.ruby.L1Cache_Controller.I.Response::total     12869648                       (Unspecified)
system.ruby.RequestType.LD.latency_hist_seqr::bucket_size            1                       (Unspecified)
system.ruby.RequestType.LD.latency_hist_seqr::max_bucket            9                       (Unspecified)
system.ruby.RequestType.LD.latency_hist_seqr::samples     12869291                       (Unspecified)
system.ruby.RequestType.LD.latency_hist_seqr::mean            1                       (Unspecified)
system.ruby.RequestType.LD.latency_hist_seqr::gmean            1                       (Unspecified)
system.ruby.RequestType.LD.latency_hist_seqr |           0      0.00%      0.00% |    12869291    100.00%    100.00% |           0      0.00%    100.00% |           0      0.00%    100.00% |           0      0.00%    100.00% |           0      0.00%    100.00% |           0      0.00%    100.00% |           0      0.00%    100.00% |           0      0.00%    100.00% |           0      0.00%    100.00% (Unspecified)
system.ruby.RequestType.LD.latency_hist_seqr::total     12869291                       (Unspecified)
system.ruby.RequestType.LD.hit_latency_hist_seqr::bucket_size            1                       (Unspecified)
system.ruby.RequestType.LD.hit_latency_hist_seqr::max_bucket            9                       (Unspecified)
system.ruby.RequestType.LD.hit_latency_hist_seqr::samples     12869291                       (Unspecified)
system.ruby.RequestType.LD.hit_latency_hist_seqr::mean            1                       (Unspecified)
system.ruby.RequestType.LD.hit_latency_hist_seqr::gmean            1                       (Unspecified)
system.ruby.RequestType.LD.hit_latency_hist_seqr |           0      0.00%      0.00% |    12869291    100.00%    100.00% |           0      0.00%    100.00% |           0      0.00%    100.00% |           0      0.00%    100.00% |           0      0.00%    100.00% |           0      0.00%    100.00% |           0      0.00%    100.00% |           0      0.00%    100.00% |           0      0.00%    100.00% (Unspecified)
system.ruby.RequestType.LD.hit_latency_hist_seqr::total     12869291                       (Unspecified)
system.ruby.RequestType.ST.latency_hist_seqr::bucket_size            1                       (Unspecified)
system.ruby.RequestType.ST.latency_hist_seqr::max_bucket            9                       (Unspecified)
system.ruby.RequestType.ST.latency_hist_seqr::samples     12869648                       (Unspecified)
system.ruby.RequestType.ST.latency_hist_seqr::mean            1                       (Unspecified)
system.ruby.RequestType.ST.latency_hist_seqr::gmean            1                       (Unspecified)
system.ruby.RequestType.ST.latency_hist_seqr |           0      0.00%      0.00% |    12869648    100.00%    100.00% |           0      0.00%    100.00% |           0      0.00%    100.00% |           0      0.00%    100.00% |           0      0.00%    100.00% |           0      0.00%    100.00% |           0      0.00%    100.00% |           0      0.00%    100.00% |           0      0.00%    100.00% (Unspecified)
system.ruby.RequestType.ST.latency_hist_seqr::total     12869648                       (Unspecified)
system.ruby.RequestType.ST.hit_latency_hist_seqr::bucket_size            1                       (Unspecified)
system.ruby.RequestType.ST.hit_latency_hist_seqr::max_bucket            9                       (Unspecified)
system.ruby.RequestType.ST.hit_latency_hist_seqr::samples     12869648                       (Unspecified)
system.ruby.RequestType.ST.hit_latency_hist_seqr::mean            1                       (Unspecified)
system.ruby.RequestType.ST.hit_latency_hist_seqr::gmean            1                       (Unspecified)
system.ruby.RequestType.ST.hit_latency_hist_seqr |           0      0.00%      0.00% |    12869648    100.00%    100.00% |           0      0.00%    100.00% |           0      0.00%    100.00% |           0      0.00%    100.00% |           0      0.00%    100.00% |           0      0.00%    100.00% |           0      0.00%    100.00% |           0      0.00%    100.00% |           0      0.00%    100.00% (Unspecified)
system.ruby.RequestType.ST.hit_latency_hist_seqr::total     12869648                       (Unspecified)
system.ruby.clk_domain.clock                      250                       # Clock period in ticks (Tick)
system.ruby.dir_cntrl0.power_state.pwrStateResidencyTicks::UNDEFINED   2147483750                       # Cumulative time (in ticks) in various power states (Tick)
system.ruby.dir_cntrl0.requestToDir.m_msg_count        80112                       # Number of messages passed the buffer (Count)
system.ruby.dir_cntrl0.requestToDir.m_buf_msgs     0.009326                       # Average number of messages in buffer ((Count/Tick))
system.ruby.dir_cntrl0.responseToDir.m_msg_count        80316                       # Number of messages passed the buffer (Count)
system.ruby.dir_cntrl0.responseToDir.m_buf_msgs     0.009350                       # Average number of messages in buffer ((Count/Tick))
system.ruby.dir_cntrl1.power_state.pwrStateResidencyTicks::UNDEFINED   2147483750                       # Cumulative time (in ticks) in various power states (Tick)
system.ruby.dir_cntrl1.requestToDir.m_msg_count        80470                       # Number of messages passed the buffer (Count)
system.ruby.dir_cntrl1.requestToDir.m_buf_msgs     0.009368                       # Average number of messages in buffer ((Count/Tick))
system.ruby.dir_cntrl1.responseToDir.m_msg_count        80349                       # Number of messages passed the buffer (Count)
system.ruby.dir_cntrl1.responseToDir.m_buf_msgs     0.009354                       # Average number of messages in buffer ((Count/Tick))
system.ruby.dir_cntrl10.power_state.pwrStateResidencyTicks::UNDEFINED   2147483750                       # Cumulative time (in ticks) in various power states (Tick)
system.ruby.dir_cntrl10.requestToDir.m_msg_count        80060                       # Number of messages passed the buffer (Count)
system.ruby.dir_cntrl10.requestToDir.m_buf_msgs     0.009320                       # Average number of messages in buffer ((Count/Tick))
system.ruby.dir_cntrl10.responseToDir.m_msg_count        80582                       # Number of messages passed the buffer (Count)
system.ruby.dir_cntrl10.responseToDir.m_buf_msgs     0.009381                       # Average number of messages in buffer ((Count/Tick))
system.ruby.dir_cntrl100.power_state.pwrStateResidencyTicks::UNDEFINED   2147483750                       # Cumulative time (in ticks) in various power states (Tick)
system.ruby.dir_cntrl100.requestToDir.m_msg_count        80639                       # Number of messages passed the buffer (Count)
system.ruby.dir_cntrl100.requestToDir.m_buf_msgs     0.009388                       # Average number of messages in buffer ((Count/Tick))
system.ruby.dir_cntrl100.responseToDir.m_msg_count        80724                       # Number of messages passed the buffer (Count)
system.ruby.dir_cntrl100.responseToDir.m_buf_msgs     0.009398                       # Average number of messages in buffer ((Count/Tick))
system.ruby.dir_cntrl101.power_state.pwrStateResidencyTicks::UNDEFINED   2147483750                       # Cumulative time (in ticks) in various power states (Tick)
system.ruby.dir_cntrl101.requestToDir.m_msg_count        80093                       # Number of messages passed the buffer (Count)
system.ruby.dir_cntrl101.requestToDir.m_buf_msgs     0.009324                       # Average number of messages in buffer ((Count/Tick))
system.ruby.dir_cntrl101.responseToDir.m_msg_count        80962                       # Number of messages passed the buffer (Count)
system.ruby.dir_cntrl101.responseToDir.m_buf_msgs     0.009425                       # Average number of messages in buffer ((Count/Tick))
system.ruby.dir_cntrl102.power_state.pwrStateResidencyTicks::UNDEFINED   2147483750                       # Cumulative time (in ticks) in various power states (Tick)
system.ruby.dir_cntrl102.requestToDir.m_msg_count        80359                       # Number of messages passed the buffer (Count)
system.ruby.dir_cntrl102.requestToDir.m_buf_msgs     0.009355                       # Average number of messages in buffer ((Count/Tick))
system.ruby.dir_cntrl102.responseToDir.m_msg_count        80790                       # Number of messages passed the buffer (Count)
system.ruby.dir_cntrl102.responseToDir.m_buf_msgs     0.009405                       # Average number of messages in buffer ((Count/Tick))
system.ruby.dir_cntrl103.power_state.pwrStateResidencyTicks::UNDEFINED   2147483750                       # Cumulative time (in ticks) in various power states (Tick)
system.ruby.dir_cntrl103.requestToDir.m_msg_count        80389                       # Number of messages passed the buffer (Count)
system.ruby.dir_cntrl103.requestToDir.m_buf_msgs     0.009359                       # Average number of messages in buffer ((Count/Tick))
system.ruby.dir_cntrl103.responseToDir.m_msg_count        80378                       # Number of messages passed the buffer (Count)
system.ruby.dir_cntrl103.responseToDir.m_buf_msgs     0.009357                       # Average number of messages in buffer ((Count/Tick))
system.ruby.dir_cntrl104.power_state.pwrStateResidencyTicks::UNDEFINED   2147483750                       # Cumulative time (in ticks) in various power states (Tick)
system.ruby.dir_cntrl104.requestToDir.m_msg_count        80464                       # Number of messages passed the buffer (Count)
system.ruby.dir_cntrl104.requestToDir.m_buf_msgs     0.009367                       # Average number of messages in buffer ((Count/Tick))
system.ruby.dir_cntrl104.responseToDir.m_msg_count        80375                       # Number of messages passed the buffer (Count)
system.ruby.dir_cntrl104.responseToDir.m_buf_msgs     0.009357                       # Average number of messages in buffer ((Count/Tick))
system.ruby.dir_cntrl105.power_state.pwrStateResidencyTicks::UNDEFINED   2147483750                       # Cumulative time (in ticks) in various power states (Tick)
system.ruby.dir_cntrl105.requestToDir.m_msg_count        80256                       # Number of messages passed the buffer (Count)
system.ruby.dir_cntrl105.requestToDir.m_buf_msgs     0.009343                       # Average number of messages in buffer ((Count/Tick))
system.ruby.dir_cntrl105.responseToDir.m_msg_count        81138                       # Number of messages passed the buffer (Count)
system.ruby.dir_cntrl105.responseToDir.m_buf_msgs     0.009446                       # Average number of messages in buffer ((Count/Tick))
system.ruby.dir_cntrl106.power_state.pwrStateResidencyTicks::UNDEFINED   2147483750                       # Cumulative time (in ticks) in various power states (Tick)
system.ruby.dir_cntrl106.requestToDir.m_msg_count        80640                       # Number of messages passed the buffer (Count)
system.ruby.dir_cntrl106.requestToDir.m_buf_msgs     0.009388                       # Average number of messages in buffer ((Count/Tick))
system.ruby.dir_cntrl106.responseToDir.m_msg_count        80382                       # Number of messages passed the buffer (Count)
system.ruby.dir_cntrl106.responseToDir.m_buf_msgs     0.009358                       # Average number of messages in buffer ((Count/Tick))
system.ruby.dir_cntrl107.power_state.pwrStateResidencyTicks::UNDEFINED   2147483750                       # Cumulative time (in ticks) in various power states (Tick)
system.ruby.dir_cntrl107.requestToDir.m_msg_count        80560                       # Number of messages passed the buffer (Count)
system.ruby.dir_cntrl107.requestToDir.m_buf_msgs     0.009378                       # Average number of messages in buffer ((Count/Tick))
system.ruby.dir_cntrl107.responseToDir.m_msg_count        80582                       # Number of messages passed the buffer (Count)
system.ruby.dir_cntrl107.responseToDir.m_buf_msgs     0.009381                       # Average number of messages in buffer ((Count/Tick))
system.ruby.dir_cntrl108.power_state.pwrStateResidencyTicks::UNDEFINED   2147483750                       # Cumulative time (in ticks) in various power states (Tick)
system.ruby.dir_cntrl108.requestToDir.m_msg_count        80222                       # Number of messages passed the buffer (Count)
system.ruby.dir_cntrl108.requestToDir.m_buf_msgs     0.009339                       # Average number of messages in buffer ((Count/Tick))
system.ruby.dir_cntrl108.responseToDir.m_msg_count        80293                       # Number of messages passed the buffer (Count)
system.ruby.dir_cntrl108.responseToDir.m_buf_msgs     0.009347                       # Average number of messages in buffer ((Count/Tick))
system.ruby.dir_cntrl109.power_state.pwrStateResidencyTicks::UNDEFINED   2147483750                       # Cumulative time (in ticks) in various power states (Tick)
system.ruby.dir_cntrl109.requestToDir.m_msg_count        80377                       # Number of messages passed the buffer (Count)
system.ruby.dir_cntrl109.requestToDir.m_buf_msgs     0.009357                       # Average number of messages in buffer ((Count/Tick))
system.ruby.dir_cntrl109.responseToDir.m_msg_count        80331                       # Number of messages passed the buffer (Count)
system.ruby.dir_cntrl109.responseToDir.m_buf_msgs     0.009352                       # Average number of messages in buffer ((Count/Tick))
system.ruby.dir_cntrl11.power_state.pwrStateResidencyTicks::UNDEFINED   2147483750                       # Cumulative time (in ticks) in various power states (Tick)
system.ruby.dir_cntrl11.requestToDir.m_msg_count        80382                       # Number of messages passed the buffer (Count)
system.ruby.dir_cntrl11.requestToDir.m_buf_msgs     0.009358                       # Average number of messages in buffer ((Count/Tick))
system.ruby.dir_cntrl11.responseToDir.m_msg_count        80821                       # Number of messages passed the buffer (Count)
[...]
system.ruby.network.sankey.vcvn13.vcvn5             0                       (Unspecified)
system.ruby.network.sankey.vcvn13.vcvn6             0                       (Unspecified)
system.ruby.network.sankey.vcvn13.vcvn7             0                       (Unspecified)
system.ruby.network.sankey.vcvn13.vcvn8             0                       (Unspecified)
system.ruby.network.sankey.vcvn13.vcvn9             0                       (Unspecified)
system.ruby.network.sankey.vcvn14.vcvn0             0                       (Unspecified)
system.ruby.network.sankey.vcvn14.vcvn1             0                       (Unspecified)
system.ruby.network.sankey.vcvn14.vcvn10            0                       (Unspecified)
system.ruby.network.sankey.vcvn14.vcvn11            0                       (Unspecified)
system.ruby.network.sankey.vcvn14.vcvn12     10858375                       (Unspecified)
system.ruby.network.sankey.vcvn14.vcvn13      1278599                       (Unspecified)
system.ruby.network.sankey.vcvn14.vcvn14        89975                       (Unspecified)
system.ruby.network.sankey.vcvn14.vcvn15         3995                       (Unspecified)
system.ruby.network.sankey.vcvn14.vcvn16        42235                       (Unspecified)
system.ruby.network.sankey.vcvn14.vcvn17       157465                       (Unspecified)
system.ruby.network.sankey.vcvn14.vcvn2             0                       (Unspecified)
system.ruby.network.sankey.vcvn14.vcvn3             0                       (Unspecified)
system.ruby.network.sankey.vcvn14.vcvn4             0                       (Unspecified)
system.ruby.network.sankey.vcvn14.vcvn5             0                       (Unspecified)
system.ruby.network.sankey.vcvn14.vcvn6             0                       (Unspecified)
system.ruby.network.sankey.vcvn14.vcvn7             0                       (Unspecified)
system.ruby.network.sankey.vcvn14.vcvn8             0                       (Unspecified)
system.ruby.network.sankey.vcvn14.vcvn9             0                       (Unspecified)
system.ruby.network.sankey.vcvn15.vcvn0             0                       (Unspecified)
system.ruby.network.sankey.vcvn15.vcvn1             0                       (Unspecified)
system.ruby.network.sankey.vcvn15.vcvn10            0                       (Unspecified)
system.ruby.network.sankey.vcvn15.vcvn11            0                       (Unspecified)
system.ruby.network.sankey.vcvn15.vcvn12     10844989                       (Unspecified)
system.ruby.network.sankey.vcvn15.vcvn13      1281790                       (Unspecified)
system.ruby.network.sankey.vcvn15.vcvn14        88915                       (Unspecified)
system.ruby.network.sankey.vcvn15.vcvn15         4315                       (Unspecified)
system.ruby.network.sankey.vcvn15.vcvn16        43410                       (Unspecified)
system.ruby.network.sankey.vcvn15.vcvn17       165340                       (Unspecified)
system.ruby.network.sankey.vcvn15.vcvn2             0                       (Unspecified)
system.ruby.network.sankey.vcvn15.vcvn3             0                       (Unspecified)
system.ruby.network.sankey.vcvn15.vcvn4             0                       (Unspecified)
system.ruby.network.sankey.vcvn15.vcvn5             0                       (Unspecified)
system.ruby.network.sankey.vcvn15.vcvn6             0                       (Unspecified)
system.ruby.network.sankey.vcvn15.vcvn7             0                       (Unspecified)
system.ruby.network.sankey.vcvn15.vcvn8             0                       (Unspecified)
system.ruby.network.sankey.vcvn15.vcvn9             0                       (Unspecified)
system.ruby.network.sankey.vcvn16.vcvn0             0                       (Unspecified)
system.ruby.network.sankey.vcvn16.vcvn1             0                       (Unspecified)
system.ruby.network.sankey.vcvn16.vcvn10            0                       (Unspecified)
system.ruby.network.sankey.vcvn16.vcvn11            0                       (Unspecified)
system.ruby.network.sankey.vcvn16.vcvn12            0                       (Unspecified)
system.ruby.network.sankey.vcvn16.vcvn13            0                       (Unspecified)
system.ruby.network.sankey.vcvn16.vcvn14            0                       (Unspecified)
system.ruby.network.sankey.vcvn16.vcvn15            0                       (Unspecified)
system.ruby.network.sankey.vcvn16.vcvn16      2457345                       (Unspecified)
system.ruby.network.sankey.vcvn16.vcvn17            0                       (Unspecified)
system.ruby.network.sankey.vcvn16.vcvn2             0                       (Unspecified)
system.ruby.network.sankey.vcvn16.vcvn3             0                       (Unspecified)
system.ruby.network.sankey.vcvn16.vcvn4             0                       (Unspecified)
system.ruby.network.sankey.vcvn16.vcvn5             0                       (Unspecified)
system.ruby.network.sankey.vcvn16.vcvn6             0                       (Unspecified)
system.ruby.network.sankey.vcvn16.vcvn7             0                       (Unspecified)
system.ruby.network.sankey.vcvn16.vcvn8             0                       (Unspecified)
system.ruby.network.sankey.vcvn16.vcvn9             0                       (Unspecified)
system.ruby.network.sankey.vcvn17.vcvn0             0                       (Unspecified)
system.ruby.network.sankey.vcvn17.vcvn1             0                       (Unspecified)
system.ruby.network.sankey.vcvn17.vcvn10            0                       (Unspecified)
system.ruby.network.sankey.vcvn17.vcvn11            0                       (Unspecified)
system.ruby.network.sankey.vcvn17.vcvn12            0                       (Unspecified)
system.ruby.network.sankey.vcvn17.vcvn13            0                       (Unspecified)
system.ruby.network.sankey.vcvn17.vcvn14            0                       (Unspecified)
system.ruby.network.sankey.vcvn17.vcvn15            0                       (Unspecified)
system.ruby.network.sankey.vcvn17.vcvn16            0                       (Unspecified)
system.ruby.network.sankey.vcvn17.vcvn17     12165704                       (Unspecified)
system.ruby.network.sankey.vcvn17.vcvn2             0                       (Unspecified)
system.ruby.network.sankey.vcvn17.vcvn3             0                       (Unspecified)
system.ruby.network.sankey.vcvn17.vcvn4             0                       (Unspecified)
system.ruby.network.sankey.vcvn17.vcvn5             0                       (Unspecified)
system.ruby.network.sankey.vcvn17.vcvn6             0                       (Unspecified)
system.ruby.network.sankey.vcvn17.vcvn7             0                       (Unspecified)
system.ruby.network.sankey.vcvn17.vcvn8             0                       (Unspecified)
system.ruby.network.sankey.vcvn17.vcvn9             0                       (Unspecified)
system.ruby.network.sankey.vcvn2.vcvn0        2365324                       (Unspecified)
system.ruby.network.sankey.vcvn2.vcvn1         108882                       (Unspecified)
system.ruby.network.sankey.vcvn2.vcvn10             0                       (Unspecified)
system.ruby.network.sankey.vcvn2.vcvn11             0                       (Unspecified)
system.ruby.network.sankey.vcvn2.vcvn12             0                       (Unspecified)
system.ruby.network.sankey.vcvn2.vcvn13             0                       (Unspecified)
system.ruby.network.sankey.vcvn2.vcvn14             0                       (Unspecified)
system.ruby.network.sankey.vcvn2.vcvn15             0                       (Unspecified)
system.ruby.network.sankey.vcvn2.vcvn16             0                       (Unspecified)
system.ruby.network.sankey.vcvn2.vcvn17             0                       (Unspecified)
system.ruby.network.sankey.vcvn2.vcvn2           2583                       (Unspecified)
system.ruby.network.sankey.vcvn2.vcvn3             33                       (Unspecified)
system.ruby.network.sankey.vcvn2.vcvn4             70                       (Unspecified)
system.ruby.network.sankey.vcvn2.vcvn5            476                       (Unspecified)
system.ruby.network.sankey.vcvn2.vcvn6              0                       (Unspecified)
system.ruby.network.sankey.vcvn2.vcvn7              0                       (Unspecified)
system.ruby.network.sankey.vcvn2.vcvn8              0                       (Unspecified)
system.ruby.network.sankey.vcvn2.vcvn9              0                       (Unspecified)
system.ruby.network.sankey.vcvn3.vcvn0        2364355                       (Unspecified)
system.ruby.network.sankey.vcvn3.vcvn1         109919                       (Unspecified)
system.ruby.network.sankey.vcvn3.vcvn10             0                       (Unspecified)
system.ruby.network.sankey.vcvn3.vcvn11             0                       (Unspecified)
system.ruby.network.sankey.vcvn3.vcvn12             0                       (Unspecified)
system.ruby.network.sankey.vcvn3.vcvn13             0                       (Unspecified)
system.ruby.network.sankey.vcvn3.vcvn14             0                       (Unspecified)
system.ruby.network.sankey.vcvn3.vcvn15             0                       (Unspecified)
system.ruby.network.sankey.vcvn3.vcvn16             0                       (Unspecified)
system.ruby.network.sankey.vcvn3.vcvn17             0                       (Unspecified)
system.ruby.network.sankey.vcvn3.vcvn2           2495                       (Unspecified)
system.ruby.network.sankey.vcvn3.vcvn3             39                       (Unspecified)
system.ruby.network.sankey.vcvn3.vcvn4             88                       (Unspecified)
system.ruby.network.sankey.vcvn3.vcvn5            470                       (Unspecified)
system.ruby.network.sankey.vcvn3.vcvn6              0                       (Unspecified)
system.ruby.network.sankey.vcvn3.vcvn7              0                       (Unspecified)
system.ruby.network.sankey.vcvn3.vcvn8              0                       (Unspecified)
system.ruby.network.sankey.vcvn3.vcvn9              0                       (Unspecified)
system.ruby.network.sankey.vcvn4.vcvn0              0                       (Unspecified)
system.ruby.network.sankey.vcvn4.vcvn1              0                       (Unspecified)
system.ruby.network.sankey.vcvn4.vcvn10             0                       (Unspecified)
system.ruby.network.sankey.vcvn4.vcvn11             0                       (Unspecified)
system.ruby.network.sankey.vcvn4.vcvn12             0                       (Unspecified)
system.ruby.network.sankey.vcvn4.vcvn13             0                       (Unspecified)
system.ruby.network.sankey.vcvn4.vcvn14             0                       (Unspecified)
system.ruby.network.sankey.vcvn4.vcvn15             0                       (Unspecified)
system.ruby.network.sankey.vcvn4.vcvn16             0                       (Unspecified)
system.ruby.network.sankey.vcvn4.vcvn17             0                       (Unspecified)
system.ruby.network.sankey.vcvn4.vcvn2              0                       (Unspecified)
system.ruby.network.sankey.vcvn4.vcvn3              0                       (Unspecified)
system.ruby.network.sankey.vcvn4.vcvn4         511327                       (Unspecified)
system.ruby.network.sankey.vcvn4.vcvn5              0                       (Unspecified)
system.ruby.network.sankey.vcvn4.vcvn6              0                       (Unspecified)
system.ruby.network.sankey.vcvn4.vcvn7              0                       (Unspecified)
system.ruby.network.sankey.vcvn4.vcvn8              0                       (Unspecified)
system.ruby.network.sankey.vcvn4.vcvn9              0                       (Unspecified)
system.ruby.network.sankey.vcvn5.vcvn0              0                       (Unspecified)
system.ruby.network.sankey.vcvn5.vcvn1              0                       (Unspecified)
system.ruby.network.sankey.vcvn5.vcvn10             0                       (Unspecified)
system.ruby.network.sankey.vcvn5.vcvn11             0                       (Unspecified)
system.ruby.network.sankey.vcvn5.vcvn12             0                       (Unspecified)
system.ruby.network.sankey.vcvn5.vcvn13             0                       (Unspecified)
system.ruby.network.sankey.vcvn5.vcvn14             0                       (Unspecified)
system.ruby.network.sankey.vcvn5.vcvn15             0                       (Unspecified)
system.ruby.network.sankey.vcvn5.vcvn16             0                       (Unspecified)
system.ruby.network.sankey.vcvn5.vcvn17             0                       (Unspecified)
system.ruby.network.sankey.vcvn5.vcvn2              0                       (Unspecified)
system.ruby.network.sankey.vcvn5.vcvn3              0                       (Unspecified)
system.ruby.network.sankey.vcvn5.vcvn4              0                       (Unspecified)
system.ruby.network.sankey.vcvn5.vcvn5        2448436                       (Unspecified)
system.ruby.network.sankey.vcvn5.vcvn6              0                       (Unspecified)
system.ruby.network.sankey.vcvn5.vcvn7              0                       (Unspecified)
system.ruby.network.sankey.vcvn5.vcvn8              0                       (Unspecified)
system.ruby.network.sankey.vcvn5.vcvn9              0                       (Unspecified)
system.ruby.network.sankey.vcvn6.vcvn0              0                       (Unspecified)
system.ruby.network.sankey.vcvn6.vcvn1              0                       (Unspecified)
system.ruby.network.sankey.vcvn6.vcvn10             0                       (Unspecified)
system.ruby.network.sankey.vcvn6.vcvn11             0                       (Unspecified)
system.ruby.network.sankey.vcvn6.vcvn12             0                       (Unspecified)
system.ruby.network.sankey.vcvn6.vcvn13             0                       (Unspecified)
system.ruby.network.sankey.vcvn6.vcvn14             0                       (Unspecified)
system.ruby.network.sankey.vcvn6.vcvn15             0                       (Unspecified)
system.ruby.network.sankey.vcvn6.vcvn16             0                       (Unspecified)
system.ruby.network.sankey.vcvn6.vcvn17             0                       (Unspecified)
system.ruby.network.sankey.vcvn6.vcvn2              0                       (Unspecified)
system.ruby.network.sankey.vcvn6.vcvn3              0                       (Unspecified)
system.ruby.network.sankey.vcvn6.vcvn4              0                       (Unspecified)
system.ruby.network.sankey.vcvn6.vcvn5              0                       (Unspecified)
system.ruby.network.sankey.vcvn6.vcvn6              0                       (Unspecified)
system.ruby.network.sankey.vcvn6.vcvn7              0                       (Unspecified)
system.ruby.network.sankey.vcvn6.vcvn8              0                       (Unspecified)
system.ruby.network.sankey.vcvn6.vcvn9              0                       (Unspecified)
system.ruby.network.sankey.vcvn7.vcvn0              0                       (Unspecified)
system.ruby.network.sankey.vcvn7.vcvn1              0                       (Unspecified)
system.ruby.network.sankey.vcvn7.vcvn10             0                       (Unspecified)
system.ruby.network.sankey.vcvn7.vcvn11             0                       (Unspecified)
system.ruby.network.sankey.vcvn7.vcvn12             0                       (Unspecified)
system.ruby.network.sankey.vcvn7.vcvn13             0                       (Unspecified)
system.ruby.network.sankey.vcvn7.vcvn14             0                       (Unspecified)
system.ruby.network.sankey.vcvn7.vcvn15             0                       (Unspecified)
system.ruby.network.sankey.vcvn7.vcvn16             0                       (Unspecified)
system.ruby.network.sankey.vcvn7.vcvn17             0                       (Unspecified)
system.ruby.network.sankey.vcvn7.vcvn2              0                       (Unspecified)
system.ruby.network.sankey.vcvn7.vcvn3              0                       (Unspecified)
system.ruby.network.sankey.vcvn7.vcvn4              0                       (Unspecified)
system.ruby.network.sankey.vcvn7.vcvn5              0                       (Unspecified)
system.ruby.network.sankey.vcvn7.vcvn6              0                       (Unspecified)
system.ruby.network.sankey.vcvn7.vcvn7              0                       (Unspecified)
system.ruby.network.sankey.vcvn7.vcvn8              0                       (Unspecified)
system.ruby.network.sankey.vcvn7.vcvn9              0                       (Unspecified)
system.ruby.network.sankey.vcvn8.vcvn0              0                       (Unspecified)
system.ruby.network.sankey.vcvn8.vcvn1              0                       (Unspecified)
system.ruby.network.sankey.vcvn8.vcvn10             0                       (Unspecified)
system.ruby.network.sankey.vcvn8.vcvn11             0                       (Unspecified)
system.ruby.network.sankey.vcvn8.vcvn12             0                       (Unspecified)
system.ruby.network.sankey.vcvn8.vcvn13             0                       (Unspecified)
system.ruby.network.sankey.vcvn8.vcvn14             0                       (Unspecified)
system.ruby.network.sankey.vcvn8.vcvn15             0                       (Unspecified)
system.ruby.network.sankey.vcvn8.vcvn16             0                       (Unspecified)
system.ruby.network.sankey.vcvn8.vcvn17             0                       (Unspecified)
system.ruby.network.sankey.vcvn8.vcvn2              0                       (Unspecified)
system.ruby.network.sankey.vcvn8.vcvn3              0                       (Unspecified)
system.ruby.network.sankey.vcvn8.vcvn4              0                       (Unspecified)
system.ruby.network.sankey.vcvn8.vcvn5              0                       (Unspecified)
system.ruby.network.sankey.vcvn8.vcvn6              0                       (Unspecified)
system.ruby.network.sankey.vcvn8.vcvn7              0                       (Unspecified)
system.ruby.network.sankey.vcvn8.vcvn8              0                       (Unspecified)
system.ruby.network.sankey.vcvn8.vcvn9              0                       (Unspecified)
system.ruby.network.sankey.vcvn9.vcvn0              0                       (Unspecified)
system.ruby.network.sankey.vcvn9.vcvn1              0                       (Unspecified)
system.ruby.network.sankey.vcvn9.vcvn10             0                       (Unspecified)
system.ruby.network.sankey.vcvn9.vcvn11             0                       (Unspecified)
system.ruby.network.sankey.vcvn9.vcvn12             0                       (Unspecified)
system.ruby.network.sankey.vcvn9.vcvn13             0                       (Unspecified)
system.ruby.network.sankey.vcvn9.vcvn14             0                       (Unspecified)
system.ruby.network.sankey.vcvn9.vcvn15             0                       (Unspecified)
system.ruby.network.sankey.vcvn9.vcvn16             0                       (Unspecified)
system.ruby.network.sankey.vcvn9.vcvn17             0                       (Unspecified)
system.ruby.network.sankey.vcvn9.vcvn2              0                       (Unspecified)
system.ruby.network.sankey.vcvn9.vcvn3              0                       (Unspecified)
system.ruby.network.sankey.vcvn9.vcvn4              0                       (Unspecified)
system.ruby.network.sankey.vcvn9.vcvn5              0                       (Unspecified)
system.ruby.network.sankey.vcvn9.vcvn6              0                       (Unspecified)
system.ruby.network.sankey.vcvn9.vcvn7              0                       (Unspecified)
system.ruby.network.sankey.vcvn9.vcvn8              0                       (Unspecified)
system.ruby.network.sankey.vcvn9.vcvn9              0                       (Unspecified)

---------- End Simulation Statistics   ----------
