
---------- Begin Simulation Statistics ----------
simSeconds                                   0.002147                       # Number of seconds simulated (Second)
simTicks                                   2147483750                       # Number of ticks simulated (Tick)
finalTick                                  2147483750                       # Number of ticks from beginning of simulation (restored from checkpoints and never reset) (Tick)
simFreq                                  1000000000000                       # The number of ticks per simulated second ((Tick/Second))
hostSeconds                                   5867.64                       # Real time elapsed on the host (Second)
hostTickRate                                   365987                       # The number of ticks simulated per host second (ticks/s) ((Tick/Second))
hostMemory                                   15606552                       # Number of bytes of host memory used (Byte)
system.clk_domain.clock                           250                       # Clock period in ticks (Tick)
system.cpu0.power_state.pwrStateResidencyTicks::UNDEFINED   2147483750                       # Cumulative time (in ticks) in various power states (Tick)
system.cpu1.power_state.pwrStateResidencyTicks::UNDEFINED   2147483750                       # Cumulative time (in ticks) in various power states (Tick)
system.cpu10.power_state.pwrStateResidencyTicks::UNDEFINED   2147483750                       # Cumulative time (in ticks) in various power states (Tick)
system.cpu11.power_state.pwrStateResidencyTicks::UNDEFINED   2147483750                       # Cumulative time (in ticks) in various power states (Tick)
system.cpu12.power_state.pwrStateResidencyTicks::UNDEFINED   2147483750                       # Cumulative time (in ticks) in various power states (Tick)
system.cpu13.power_state.pwrStateResidencyTicks::UNDEFINED   2147483750                       # Cumulative time (in ticks) in various power states (Tick)
system.cpu14.power_state.pwrStateResidencyTicks::UNDEFINED   2147483750                       # Cumulative time (in ticks) in various power states (Tick)
system.cpu15.power_state.pwrStateResidencyTicks::UNDEFINED   2147483750                       # Cumulative time (in ticks) in various power states (Tick)
system.cpu16.power_state.pwrStateResidencyTicks::UNDEFINED   2147483750                       # Cumulative time (in ticks) in various power states (Tick)
system.cpu17.power_state.pwrStateResidencyTicks::UNDEFINED   2147483750                       # Cumulative time (in ticks) in various power states (Tick)
system.cpu18.power_state.pwrStateResidencyTicks::UNDEFINED   2147483750                       # Cumulative time (in ticks) in various power states (Tick)
system.cpu19.power_state.pwrStateResidencyTicks::UNDEFINED   2147483750                       # Cumulative time (in ticks) in various power states (Tick)
system.cpu2.power_state.pwrStateResidencyTicks::UNDEFINED   2147483750                       # Cumulative time (in ticks) in various power states (Tick)
system.cpu20.power_state.pwrStateResidencyTicks::UNDEFINED   2147483750                       # Cumulative time (in ticks) in various power states (Tick)
system.cpu21.power_state.pwrStateResidencyTicks::UNDEFINED   2147483750                       # Cumulative time (in ticks) in various power states (Tick)
system.cpu22.power_state.pwrStateResidencyTicks::UNDEFINED   2147483750                       # Cumulative time (in ticks) in various power states (Tick)
system.cpu23.power_state.pwrStateResidencyTicks::UNDEFINED   2147483750                       # Cumulative time (in ticks) in various power states (Tick)
system.cpu24.power_state.pwrStateResidencyTicks::UNDEFINED   2147483750                       # Cumulative time (in ticks) in various power states (Tick)
system.cpu25.power_state.pwrStateResidencyTicks::UNDEFINED   2147483750                       # Cumulative time (in ticks) in various power states (Tick)
system.cpu26.power_state.pwrStateResidencyTicks::UNDEFINED   2147483750                       # Cumulative time (in ticks) in various power states (Tick)
system.cpu27.power_state.pwrStateResidencyTicks::UNDEFINED   2147483750                       # Cumulative time (in ticks) in various power states (Tick)
system.cpu28.power_state.pwrStateResidencyTicks::UNDEFINED   2147483750                       # Cumulative time (in ticks) in various power states (Tick)
system.cpu29.power_state.pwrStateResidencyTicks::UNDEFINED   2147483750                       # Cumulative time (in ticks) in various power states (Tick)
system.cpu3.power_state.pwrStateResidencyTicks::UNDEFINED   2147483750                       # Cumulative time (in ticks) in various power states (Tick)
system.cpu30.power_state.pwrStateResidencyTicks::UNDEFINED   2147483750                       # Cumulative time (in ticks) in various power states (Tick)
system.cpu31.power_state.pwrStateResidencyTicks::UNDEFINED   2147483750                       # Cumulative time (in ticks) in various power states (Tick)
system.cpu32.power_state.pwrStateResidencyTicks::UNDEFINED   2147483750                       # Cumulative time (in ticks) in various power states (Tick)
system.cpu33.power_state.pwrStateResidencyTicks::UNDEFINED   2147483750                       # Cumulative time (in ticks) in various power states (Tick)
system.cpu34.power_state.pwrStateResidencyTicks::UNDEFINED   2147483750                       # Cumulative time (in ticks) in various power states (Tick)
system.cpu35.power_state.pwrStateResidencyTicks::UNDEFINED   2147483750                       # Cumulative time (in ticks) in various power states (Tick)
system.cpu36.power_state.pwrStateResidencyTicks::UNDEFINED   2147483750                       # Cumulative time (in ticks) in various power states (Tick)
system.cpu37.power_state.pwrStateResidencyTicks::UNDEFINED   2147483750                       # Cumulative time (in ticks) in various power states (Tick)
system.cpu38.power_state.pwrStateResidencyTicks::UNDEFINED   2147483750                       # Cumulative time (in ticks) in various power states (Tick)
system.cpu39.power_state.pwrStateResidencyTicks::UNDEFINED   2147483750                       # Cumulative time (in ticks) in various power states (Tick)
system.cpu4.power_state.pwrStateResidencyTicks::UNDEFINED   2147483750                       # Cumulative time (in ticks) in various power states (Tick)
system.cpu5.power_state.pwrStateResidencyTicks::UNDEFINED   2147483750                       # Cumulative time (in ticks) in various power states (Tick)
system.cpu6.power_state.pwrStateResidencyTicks::UNDEFINED   2147483750                       # Cumulative time (in ticks) in various power states (Tick)
system.cpu7.power_state.pwrStateResidencyTicks::UNDEFINED   2147483750                       # Cumulative time (in ticks) in various power states (Tick)
system.cpu8.power_state.pwrStateResidencyTicks::UNDEFINED   2147483750                       # Cumulative time (in ticks) in various power states (Tick)
system.cpu9.power_state.pwrStateResidencyTicks::UNDEFINED   2147483750                       # Cumulative time (in ticks) in various power states (Tick)
system.mem_ctrls0.power_state.pwrStateResidencyTicks::UNDEFINED   2147483750                       # Cumulative time (in ticks) in various power states (Tick)
system.mem_ctrls1.power_state.pwrStateResidencyTicks::UNDEFINED   2147483750                       # Cumulative time (in ticks) in various power states (Tick)
system.mem_ctrls10.power_state.pwrStateResidencyTicks::UNDEFINED   2147483750                       # Cumulative time (in ticks) in various power states (Tick)
system.mem_ctrls100.power_state.pwrStateResidencyTicks::UNDEFINED   2147483750                       # Cumulative time (in ticks) in various power states (Tick)
system.mem_ctrls101.power_state.pwrStateResidencyTicks::UNDEFINED   2147483750                       # Cumulative time (in ticks) in various power states (Tick)
system.mem_ctrls102.power_state.pwrStateResidencyTicks::UNDEFINED   2147483750                       # Cumulative time (in ticks) in various power states (Tick)
system.mem_ctrls103.power_state.pwrStateResidencyTicks::UNDEFINED   2147483750                       # Cumulative time (in ticks) in various power states (Tick)
system.mem_ctrls104.power_state.pwrStateResidencyTicks::UNDEFINED   2147483750                       # Cumulative time (in ticks) in various power states (Tick)
system.mem_ctrls105.power_state.pwrStateResidencyTicks::UNDEFINED   2147483750                       # Cumulative time (in ticks) in various power states (Tick)
system.mem_ctrls106.power_state.pwrStateResidencyTicks::UNDEFINED   2147483750                       # Cumulative time (in ticks) in various power states (Tick)
system.mem_ctrls107.power_state.pwrStateResidencyTicks::UNDEFINED   2147483750                       # Cumulative time (in ticks) in various power states (Tick)
system.mem_ctrls108.power_state.pwrStateResidencyTicks::UNDEFINED   2147483750                       # Cumulative time (in ticks) in various power states (Tick)
system.mem_ctrls109.power_state.pwrStateResidencyTicks::UNDEFINED   2147483750                       # Cumulative time (in ticks) in various power states (Tick)
system.mem_ctrls11.power_state.pwrStateResidencyTicks::UNDEFINED   2147483750                       # Cumulative time (in ticks) in various power states (Tick)
system.mem_ctrls110.power_state.pwrStateResidencyTicks::UNDEFINED   2147483750                       # Cumulative time (in ticks) in various power states (Tick)
system.mem_ctrls111.power_state.pwrStateResidencyTicks::UNDEFINED   2147483750                       # Cumulative time (in ticks) in various power states (Tick)
system.mem_ctrls112.power_state.pwrStateResidencyTicks::UNDEFINED   2147483750                       # Cumulative time (in ticks) in various power states (Tick)
system.mem_ctrls113.power_state.pwrStateResidencyTicks::UNDEFINED   2147483750                       # Cumulative time (in ticks) in various power states (Tick)
system.mem_ctrls114.power_state.pwrStateResidencyTicks::UNDEFINED   2147483750                       # Cumulative time (in ticks) in various power states (Tick)
system.mem_ctrls115.power_state.pwrStateResidencyTicks::UNDEFINED   2147483750                       # Cumulative time (in ticks) in various power states (Tick)
system.mem_ctrls116.power_state.pwrStateResidencyTicks::UNDEFINED   2147483750                       # Cumulative time (in ticks) in various power states (Tick)
system.mem_ctrls117.power_state.pwrStateResidencyTicks::UNDEFINED   2147483750                       # Cumulative time (in ticks) in various power states (Tick)
system.mem_ctrls118.power_state.pwrStateResidencyTicks::UNDEFINED   2147483750                       # Cumulative time (in ticks) in various power states (Tick)
system.mem_ctrls119.power_state.pwrStateResidencyTicks::UNDEFINED   2147483750                       # Cumulative time (in ticks) in various power states (Tick)
system.mem_ctrls12.power_state.pwrStateResidencyTicks::UNDEFINED   2147483750                       # Cumulative time (in ticks) in various power states (Tick)
system.mem_ctrls120.power_state.pwrStateResidencyTicks::UNDEFINED   2147483750                       # Cumulative time (in ticks) in various power states (Tick)
system.mem_ctrls121.power_state.pwrStateResidencyTicks::UNDEFINED   2147483750                       # Cumulative time (in ticks) in various power states (Tick)
system.mem_ctrls122.power_state.pwrStateResidencyTicks::UNDEFINED   2147483750                       # Cumulative time (in ticks) in various power states (Tick)
system.mem_ctrls123.power_state.pwrStateResidencyTicks::UNDEFINED   2147483750                       # Cumulative time (in ticks) in various power states (Tick)
system.mem_ctrls124.power_state.pwrStateResidencyTicks::UNDEFINED   2147483750                       # Cumulative time (in ticks) in various power states (Tick)
system.mem_ctrls125.power_state.pwrStateResidencyTicks::UNDEFINED   2147483750                       # Cumulative time (in ticks) in various power states (Tick)
system.mem_ctrls126.power_state.pwrStateResidencyTicks::UNDEFINED   2147483750                       # Cumulative time (in ticks) in various power states (Tick)
system.mem_ctrls127.power_state.pwrStateResidencyTicks::UNDEFINED   2147483750                       # Cumulative time (in ticks) in various power states (Tick)
system.mem_ctrls128.power_state.pwrStateResidencyTicks::UNDEFINED   2147483750                       # Cumulative time (in ticks) in various power states (Tick)
system.mem_ctrls129.power_state.pwrStateResidencyTicks::UNDEFINED   2147483750                       # Cumulative time (in ticks) in various power states (Tick)
system.mem_ctrls13.power_state.pwrStateResidencyTicks::UNDEFINED   2147483750                       # Cumulative time (in ticks) in various power states (Tick)
system.mem_ctrls130.power_state.pwrStateResidencyTicks::UNDEFINED   2147483750                       # Cumulative time (in ticks) in various power states (Tick)
system.mem_ctrls131.power_state.pwrStateResidencyTicks::UNDEFINED   2147483750                       # Cumulative time (in ticks) in various power states (Tick)
system.mem_ctrls132.power_state.pwrStateResidencyTicks::UNDEFINED   2147483750                       # Cumulative time (in ticks) in various power states (Tick)
system.mem_ctrls133.power_state.pwrStateResidencyTicks::UNDEFINED   2147483750                       # Cumulative time (in ticks) in various power states (Tick)
system.mem_ctrls134.power_state.pwrStateResidencyTicks::UNDEFINED   2147483750                       # Cumulative time (in ticks) in various power states (Tick)
system.mem_ctrls135.power_state.pwrStateResidencyTicks::UNDEFINED   2147483750                       # Cumulative time (in ticks) in various power states (Tick)
system.mem_ctrls136.power_state.pwrStateResidencyTicks::UNDEFINED   2147483750                       # Cumulative time (in ticks) in various power states (Tick)
system.mem_ctrls137.power_state.pwrStateResidencyTicks::UNDEFINED   2147483750                       # Cumulative time (in ticks) in various power states (Tick)
system.mem_ctrls138.power_state.pwrStateResidencyTicks::UNDEFINED   2147483750                       # Cumulative time (in ticks) in various power states (Tick)
system.mem_ctrls139.power_state.pwrStateResidencyTicks::UNDEFINED   2147483750                       # Cumulative time (in ticks) in various power states (Tick)
system.mem_ctrls14.power_state.pwrStateResidencyTicks::UNDEFINED   2147483750                       # Cumulative time (in ticks) in various power states (Tick)
system.mem_ctrls140.power_state.pwrStateResidencyTicks::UNDEFINED   2147483750                       # Cumulative time (in ticks) in various power states (Tick)
system.mem_ctrls141.power_state.pwrStateResidencyTicks::UNDEFINED   2147483750                       # Cumulative time (in ticks) in various power states (Tick)
system.mem_ctrls142.power_state.pwrStateResidencyTicks::UNDEFINED   2147483750                       # Cumulative time (in ticks) in various power states (Tick)
system.mem_ctrls143.power_state.pwrStateResidencyTicks::UNDEFINED   2147483750                       # Cumulative time (in ticks) in various power states (Tick)
system.mem_ctrls144.power_state.pwrStateResidencyTicks::UNDEFINED   2147483750                       # Cumulative time (in ticks) in various power states (Tick)
system.mem_ctrls145.power_state.pwrStateResidencyTicks::UNDEFINED   2147483750                       # Cumulative time (in ticks) in various power states (Tick)
system.mem_ctrls146.power_state.pwrStateResidencyTicks::UNDEFINED   2147483750                       # Cumulative time (in ticks) in various power states (Tick)
system.mem_ctrls147.power_state.pwrStateResidencyTicks::UNDEFINED   2147483750                       # Cumulative time (in ticks) in various power states (Tick)
system.mem_ctrls148.power_state.pwrStateResidencyTicks::UNDEFINED   2147483750                       # Cumulative time (in ticks) in various power states (Tick)
system.mem_ctrls149.power_state.pwrStateResidencyTicks::UNDEFINED   2147483750                       # Cumulative time (in ticks) in various power states (Tick)
system.mem_ctrls15.power_state.pwrStateResidencyTicks::UNDEFINED   2147483750                       # Cumulative time (in ticks) in various power states (Tick)
system.mem_ctrls150.power_state.pwrStateResidencyTicks::UNDEFINED   2147483750                       # Cumulative time (in ticks) in various power states (Tick)
system.mem_ctrls151.power_state.pwrStateResidencyTicks::UNDEFINED   2147483750                       # Cumulative time (in ticks) in various power states (Tick)
system.mem_ctrls152.power_state.pwrStateResidencyTicks::UNDEFINED   2147483750                       # Cumulative time (in ticks) in various power states (Tick)
system.mem_ctrls153.power_state.pwrStateResidencyTicks::UNDEFINED   2147483750                       # Cumulative time (in ticks) in various power states (Tick)
system.mem_ctrls154.power_state.pwrStateResidencyTicks::UNDEFINED   2147483750                       # Cumulative time (in ticks) in various power states (Tick)
system.mem_ctrls155.power_state.pwrStateResidencyTicks::UNDEFINED   2147483750                       # Cumulative time (in ticks) in various power states (Tick)
system.mem_ctrls156.power_state.pwrStateResidencyTicks::UNDEFINED   2147483750                       # Cumulative time (in ticks) in various power states (Tick)
system.mem_ctrls157.power_state.pwrStateResidencyTicks::UNDEFINED   2147483750                       # Cumulative time (in ticks) in various power states (Tick)
system.mem_ctrls158.power_state.pwrStateResidencyTicks::UNDEFINED   2147483750                       # Cumulative time (in ticks) in various power states (Tick)
system.mem_ctrls159.power_state.pwrStateResidencyTicks::UNDEFINED   2147483750                       # Cumulative time (in ticks) in various power states (Tick)
system.mem_ctrls16.power_state.pwrStateResidencyTicks::UNDEFINED   2147483750                       # Cumulative time (in ticks) in various power states (Tick)
system.mem_ctrls17.power_state.pwrStateResidencyTicks::UNDEFINED   2147483750                       # Cumulative time (in ticks) in various power states (Tick)
system.mem_ctrls18.power_state.pwrStateResidencyTicks::UNDEFINED   2147483750                       # Cumulative time (in ticks) in various power states (Tick)
system.mem_ctrls19.power_state.pwrStateResidencyTicks::UNDEFINED   2147483750                       # Cumulative time (in ticks) in various power states (Tick)
system.mem_ctrls2.power_state.pwrStateResidencyTicks::UNDEFINED   2147483750                       # Cumulative time (in ticks) in various power states (Tick)
system.mem_ctrls20.power_state.pwrStateResidencyTicks::UNDEFINED   2147483750                       # Cumulative time (in ticks) in various power states (Tick)
system.mem_ctrls21.power_state.pwrStateResidencyTicks::UNDEFINED   2147483750                       # Cumulative time (in ticks) in various power states (Tick)
system.mem_ctrls22.power_state.pwrStateResidencyTicks::UNDEFINED   2147483750                       # Cumulative time (in ticks) in various power states (Tick)
system.mem_ctrls23.power_state.pwrStateResidencyTicks::UNDEFINED   2147483750                       # Cumulative time (in ticks) in various power states (Tick)
system.mem_ctrls24.power_state.pwrStateResidencyTicks::UNDEFINED   2147483750                       # Cumulative time (in ticks) in various power states (Tick)
system.mem_ctrls25.power_state.pwrStateResidencyTicks::UNDEFINED   2147483750                       # Cumulative time (in ticks) in various power states (Tick)
system.mem_ctrls26.power_state.pwrStateResidencyTicks::UNDEFINED   2147483750                       # Cumulative time (in ticks) in various power states (Tick)
system.mem_ctrls27.power_state.pwrStateResidencyTicks::UNDEFINED   2147483750                       # Cumulative time (in ticks) in various power states (Tick)
system.mem_ctrls28.power_state.pwrStateResidencyTicks::UNDEFINED   2147483750                       # Cumulative time (in ticks) in various power states (Tick)
system.mem_ctrls29.power_state.pwrStateResidencyTicks::UNDEFINED   2147483750                       # Cumulative time (in ticks) in various power states (Tick)
system.mem_ctrls3.power_state.pwrStateResidencyTicks::UNDEFINED   2147483750                       # Cumulative time (in ticks) in various power states (Tick)
system.mem_ctrls30.power_state.pwrStateResidencyTicks::UNDEFINED   2147483750                       # Cumulative time (in ticks) in various power states (Tick)
system.mem_ctrls31.power_state.pwrStateResidencyTicks::UNDEFINED   2147483750                       # Cumulative time (in ticks) in various power states (Tick)
system.mem_ctrls32.power_state.pwrStateResidencyTicks::UNDEFINED   2147483750                       # Cumulative time (in ticks) in various power states (Tick)
system.mem_ctrls33.power_state.pwrStateResidencyTicks::UNDEFINED   2147483750                       # Cumulative time (in ticks) in various power states (Tick)
system.mem_ctrls34.power_state.pwrStateResidencyTicks::UNDEFINED   2147483750                       # Cumulative time (in ticks) in various power states (Tick)
system.mem_ctrls35.power_state.pwrStateResidencyTicks::UNDEFINED   2147483750                       # Cumulative time (in ticks) in various power states (Tick)
system.mem_ctrls36.power_state.pwrStateResidencyTicks::UNDEFINED   2147483750                       # Cumulative time (in ticks) in various power states (Tick)
system.mem_ctrls37.power_state.pwrStateResidencyTicks::UNDEFINED   2147483750                       # Cumulative time (in ticks) in various power states (Tick)
system.mem_ctrls38.power_state.pwrStateResidencyTicks::UNDEFINED   2147483750                       # Cumulative time (in ticks) in various power states (Tick)
system.mem_ctrls39.power_state.pwrStateResidencyTicks::UNDEFINED   2147483750                       # Cumulative time (in ticks) in various power states (Tick)
system.mem_ctrls4.power_state.pwrStateResidencyTicks::UNDEFINED   2147483750                       # Cumulative time (in ticks) in various power states (Tick)
system.mem_ctrls40.power_state.pwrStateResidencyTicks::UNDEFINED   2147483750                       # Cumulative time (in ticks) in various power states (Tick)
system.mem_ctrls41.power_state.pwrStateResidencyTicks::UNDEFINED   2147483750                       # Cumulative time (in ticks) in various power states (Tick)
system.mem_ctrls42.power_state.pwrStateResidencyTicks::UNDEFINED   2147483750                       # Cumulative time (in ticks) in various power states (Tick)
system.mem_ctrls43.power_state.pwrStateResidencyTicks::UNDEFINED   2147483750                       # Cumulative time (in ticks) in various power states (Tick)
system.mem_ctrls44.power_state.pwrStateResidencyTicks::UNDEFINED   2147483750                       # Cumulative time (in ticks) in various power states (Tick)
system.mem_ctrls45.power_state.pwrStateResidencyTicks::UNDEFINED   2147483750                       # Cumulative time (in ticks) in various power states (Tick)
system.mem_ctrls46.power_state.pwrStateResidencyTicks::UNDEFINED   2147483750                       # Cumulative time (in ticks) in various power states (Tick)
system.mem_ctrls47.power_state.pwrStateResidencyTicks::UNDEFINED   2147483750                       # Cumulative time (in ticks) in various power states (Tick)
system.mem_ctrls48.power_state.pwrStateResidencyTicks::UNDEFINED   2147483750                       # Cumulative time (in ticks) in various power states (Tick)
system.mem_ctrls49.power_state.pwrStateResidencyTicks::UNDEFINED   2147483750                       # Cumulative time (in ticks) in various power states (Tick)
system.mem_ctrls5.power_state.pwrStateResidencyTicks::UNDEFINED   2147483750                       # Cumulative time (in ticks) in various power states (Tick)
system.mem_ctrls50.power_state.pwrStateResidencyTicks::UNDEFINED   2147483750                       # Cumulative time (in ticks) in various power states (Tick)
system.mem_ctrls51.power_state.pwrStateResidencyTicks::UNDEFINED   2147483750                       # Cumulative time (in ticks) in various power states (Tick)
system.mem_ctrls52.power_state.pwrStateResidencyTicks::UNDEFINED   2147483750                       # Cumulative time (in ticks) in various power states (Tick)
system.mem_ctrls53.power_state.pwrStateResidencyTicks::UNDEFINED   2147483750                       # Cumulative time (in ticks) in various power states (Tick)
system.mem_ctrls54.power_state.pwrStateResidencyTicks::UNDEFINED   2147483750                       # Cumulative time (in ticks) in various power states (Tick)
system.mem_ctrls55.power_state.pwrStateResidencyTicks::UNDEFINED   2147483750                       # Cumulative time (in ticks) in various power states (Tick)
system.mem_ctrls56.power_state.pwrStateResidencyTicks::UNDEFINED   2147483750                       # Cumulative time (in ticks) in various power states (Tick)
system.mem_ctrls57.power_state.pwrStateResidencyTicks::UNDEFINED   2147483750                       # Cumulative time (in ticks) in various power states (Tick)
system.mem_ctrls58.power_state.pwrStateResidencyTicks::UNDEFINED   2147483750                       # Cumulative time (in ticks) in various power states (Tick)
system.mem_ctrls59.power_state.pwrStateResidencyTicks::UNDEFINED   2147483750                       # Cumulative time (in ticks) in various power states (Tick)
system.mem_ctrls6.power_state.pwrStateResidencyTicks::UNDEFINED   2147483750                       # Cumulative time (in ticks) in various power states (Tick)
system.mem_ctrls60.power_state.pwrStateResidencyTicks::UNDEFINED   2147483750                       # Cumulative time (in ticks) in various power states (Tick)
system.mem_ctrls61.power_state.pwrStateResidencyTicks::UNDEFINED   2147483750                       # Cumulative time (in ticks) in various power states (Tick)
system.mem_ctrls62.power_state.pwrStateResidencyTicks::UNDEFINED   2147483750                       # Cumulative time (in ticks) in various power states (Tick)
system.mem_ctrls63.power_state.pwrStateResidencyTicks::UNDEFINED   2147483750                       # Cumulative time (in ticks) in various power states (Tick)
system.mem_ctrls64.power_state.pwrStateResidencyTicks::UNDEFINED   2147483750                       # Cumulative time (in ticks) in various power states (Tick)
system.mem_ctrls65.power_state.pwrStateResidencyTicks::UNDEFINED   2147483750                       # Cumulative time (in ticks) in various power states (Tick)
system.mem_ctrls66.power_state.pwrStateResidencyTicks::UNDEFINED   2147483750                       # Cumulative time (in ticks) in various power states (Tick)
system.mem_ctrls67.power_state.pwrStateResidencyTicks::UNDEFINED   2147483750                       # Cumulative time (in ticks) in various power states (Tick)
system.mem_ctrls68.power_state.pwrStateResidencyTicks::UNDEFINED   2147483750                       # Cumulative time (in ticks) in various power states (Tick)
system.mem_ctrls69.power_state.pwrStateResidencyTicks::UNDEFINED   2147483750                       # Cumulative time (in ticks) in various power states (Tick)
system.mem_ctrls7.power_state.pwrStateResidencyTicks::UNDEFINED   2147483750                       # Cumulative time (in ticks) in various power states (Tick)
system.mem_ctrls70.power_state.pwrStateResidencyTicks::UNDEFINED   2147483750                       # Cumulative time (in ticks) in various power states (Tick)
system.mem_ctrls71.power_state.pwrStateResidencyTicks::UNDEFINED   2147483750                       # Cumulative time (in ticks) in various power states (Tick)
system.mem_ctrls72.power_state.pwrStateResidencyTicks::UNDEFINED   2147483750                       # Cumulative time (in ticks) in various power states (Tick)
system.mem_ctrls73.power_state.pwrStateResidencyTicks::UNDEFINED   2147483750                       # Cumulative time (in ticks) in various power states (Tick)
system.mem_ctrls74.power_state.pwrStateResidencyTicks::UNDEFINED   2147483750                       # Cumulative time (in ticks) in various power states (Tick)
system.mem_ctrls75.power_state.pwrStateResidencyTicks::UNDEFINED   2147483750                       # Cumulative time (in ticks) in various power states (Tick)
system.mem_ctrls76.power_state.pwrStateResidencyTicks::UNDEFINED   2147483750                       # Cumulative time (in ticks) in various power states (Tick)
system.mem_ctrls77.power_state.pwrStateResidencyTicks::UNDEFINED   2147483750                       # Cumulative time (in ticks) in various power states (Tick)
system.mem_ctrls78.power_state.pwrStateResidencyTicks::UNDEFINED   2147483750                       # Cumulative time (in ticks) in various power states (Tick)
system.mem_ctrls79.power_state.pwrStateResidencyTicks::UNDEFINED   2147483750                       # Cumulative time (in ticks) in various power states (Tick)
system.mem_ctrls8.power_state.pwrStateResidencyTicks::UNDEFINED   2147483750                       # Cumulative time (in ticks) in various power states (Tick)
system.mem_ctrls80.power_state.pwrStateResidencyTicks::UNDEFINED   2147483750                       # Cumulative time (in ticks) in various power states (Tick)
system.mem_ctrls81.power_state.pwrStateResidencyTicks::UNDEFINED   2147483750                       # Cumulative time (in ticks) in various power states (Tick)
system.mem_ctrls82.power_state.pwrStateResidencyTicks::UNDEFINED   2147483750                       # Cumulative time (in ticks) in various power states (Tick)
system.mem_ctrls83.power_state.pwrStateResidencyTicks::UNDEFINED   2147483750                       # Cumulative time (in ticks) in various power states (Tick)
system.mem_ctrls84.power_state.pwrStateResidencyTicks::UNDEFINED   2147483750                       # Cumulative time (in ticks) in various power states (Tick)
system.mem_ctrls85.power_state.pwrStateResidencyTicks::UNDEFINED   2147483750                       # Cumulative time (in ticks) in various power states (Tick)
system.mem_ctrls86.power_state.pwrStateResidencyTicks::UNDEFINED   2147483750                       # Cumulative time (in ticks) in various power states (Tick)
system.mem_ctrls87.power_state.pwrStateResidencyTicks::UNDEFINED   2147483750                       # Cumulative time (in ticks) in various power states (Tick)
system.mem_ctrls88.power_state.pwrStateResidencyTicks::UNDEFINED   2147483750                       # Cumulative time (in ticks) in various power states (Tick)
system.mem_ctrls89.power_state.pwrStateResidencyTicks::UNDEFINED   2147483750                       # Cumulative time (in ticks) in various power states (Tick)
system.mem_ctrls9.power_state.pwrStateResidencyTicks::UNDEFINED   2147483750                       # Cumulative time (in ticks) in various power states (Tick)
system.mem_ctrls90.power_state.pwrStateResidencyTicks::UNDEFINED   2147483750                       # Cumulative time (in ticks) in various power states (Tick)
system.mem_ctrls91.power_state.pwrStateResidencyTicks::UNDEFINED   2147483750                       # Cumulative time (in ticks) in various power states (Tick)
system.mem_ctrls92.power_state.pwrStateResidencyTicks::UNDEFINED   2147483750                       # Cumulative time (in ticks) in various power states (Tick)
system.mem_ctrls93.power_state.pwrStateResidencyTicks::UNDEFINED   2147483750                       # Cumulative time (in ticks) in various power states (Tick)
system.mem_ctrls94.power_state.pwrStateResidencyTicks::UNDEFINED   2147483750                       # Cumulative time (in ticks) in various power states (Tick)
system.mem_ctrls95.power_state.pwrStateResidencyTicks::UNDEFINED   2147483750                       # Cumulative time (in ticks) in various power states (Tick)
system.mem_ctrls96.power_state.pwrStateResidencyTicks::UNDEFINED   2147483750                       # Cumulative time (in ticks) in various power states (Tick)
system.mem_ctrls97.power_state.pwrStateResidencyTicks::UNDEFINED   2147483750                       # Cumulative time (in ticks) in various power states (Tick)
system.mem_ctrls98.power_state.pwrStateResidencyTicks::UNDEFINED   2147483750                       # Cumulative time (in ticks) in various power states (Tick)
system.mem_ctrls99.power_state.pwrStateResidencyTicks::UNDEFINED   2147483750                       # Cumulative time (in ticks) in various power states (Tick)
system.ruby.m_outstandReqHistSeqr::bucket_size            1                       (Unspecified)
system.ruby.m_outstandReqHistSeqr::max_bucket            9                       (Unspecified)
system.ruby.m_outstandReqHistSeqr::samples     42903298                       (Unspecified)
system.ruby.m_outstandReqHistSeqr::mean             1                       (Unspecified)
system.ruby.m_outstandReqHistSeqr::gmean            1                       (Unspecified)
system.ruby.m_outstandReqHistSeqr        |           0      0.00%      0.00% |    42903298    100.00%    100.00% |           0      0.00%    100.00% |           0      0.00%    100.00% |           0      0.00%    100.00% |           0      0.00%    100.00% |           0      0.00%    100.00% |           0      0.00%    100.00% |           0      0.00%    100.00% |           0      0.00%    100.00% (Unspecified)
system.ruby.m_outstandReqHistSeqr::total     42903298                       (Unspecified)
system.ruby.m_latencyHistSeqr::bucket_size            1                       (Unspecified)
system.ruby.m_latencyHistSeqr::max_bucket            9                       (Unspecified)
system.ruby.m_latencyHistSeqr::samples       42903288                       (Unspecified)
system.ruby.m_latencyHistSeqr::mean                 1                       (Unspecified)
system.ruby.m_latencyHistSeqr::gmean                1                       (Unspecified)
system.ruby.m_latencyHistSeqr            |           0      0.00%      0.00% |    42903288    100.00%    100.00% |           0      0.00%    100.00% |           0      0.00%    100.00% |           0      0.00%    100.00% |           0      0.00%    100.00% |           0      0.00%    100.00% |           0      0.00%    100.00% |           0      0.00%    100.00% |           0      0.00%    100.00% (Unspecified)
system.ruby.m_latencyHistSeqr::total         42903288                       (Unspecified)
system.ruby.m_hitLatencyHistSeqr::bucket_size            1                       (Unspecified)
system.ruby.m_hitLatencyHistSeqr::max_bucket            9                       (Unspecified)
system.ruby.m_hitLatencyHistSeqr::samples     42903288                       (Unspecified)
system.ruby.m_hitLatencyHistSeqr::mean              1                       (Unspecified)
system.ruby.m_hitLatencyHistSeqr::gmean             1                       (Unspecified)
system.ruby.m_hitLatencyHistSeqr         |           0      0.00%      0.00% |    42903288    100.00%    100.00% |           0      0.00%    100.00% |           0      0.00%    100.00% |           0      0.00%    100.00% |           0      0.00%    100.00% |           0      0.00%    100.00% |           0      0.00%    100.00% |           0      0.00%    100.00% |           0      0.00%    100.00% (Unspecified)
system.ruby.m_hitLatencyHistSeqr::total      42903288                       (Unspecified)
system.ruby.Directory_Controller.Receive_Request |      133373      0.62%      0.62% |      133889      0.62%      1.25% |      133964      0.62%      1.87% |      134032      0.62%      2.50% |      134810      0.63%      3.12% |      133976      0.62%      3.75% |      134065      0.62%      4.37% |      134134      0.63%      5.00% |      134474      0.63%      5.63% |      133879      0.62%      6.25% |      133997      0.62%      6.87% |      133912      0.62%      7.50% |      134312      0.63%      8.12% |      133911      0.62%      8.75% |      133722      0.62%      9.37% |      133607      0.62%      9.99% |      133991      0.62%     10.62% |      134279      0.63%     11.24% |      134096      0.63%     11.87% |      134270      0.63%     12.50% |      134749      0.63%     13.12% |      134299      0.63%     13.75% |      134209      0.63%     14.38% |      133709      0.62%     15.00% |      133631      0.62%     15.62% |      134637      0.63%     16.25% |      133601      0.62%     16.87% |      134440      0.63%     17.50% |      134221      0.63%     18.12% |      134866      0.63%     18.75% |      133935      0.62%     19.38% |      134288      0.63%     20.00% |      134873      0.63%     20.63% |      134080      0.63%     21.26% |      134054      0.62%     21.88% |      134155      0.63%     22.51% |      134369      0.63%     23.13% |      133850      0.62%     23.76% |      134277      0.63%     24.38% |      134144      0.63%     25.01% |      133870      0.62%     25.63% |      134029      0.62%     26.26% |      133710      0.62%     26.88% |      134391      0.63%     27.51% |      133542      0.62%     28.13% |      134469      0.63%     28.76% |      134321      0.63%     29.38% |      133839      0.62%     30.01% |      133865      0.62%     30.63% |      134289      0.63%     31.26% |      134359      0.63%     31.88% |      134101      0.63%     32.51% |      133960      0.62%     33.13% |      134090      0.63%     33.76% |      133628      0.62%     34.38% |      134197      0.63%     35.01% |      133519      0.62%     35.63% |      133990      0.62%     36.25% |      134233      0.63%     36.88% |      134484      0.63%     37.51% |      134352      0.63%     38.13% |      133359      0.62%     38.75% |      134423      0.63%     39.38% |      134175      0.63%     40.01% |      133636      0.62%     40.63% |      134143      0.63%     41.25% |      134435      0.63%     41.88% |      133884      0.62%     42.50% |      133616      0.62%     43.13% |      133865      0.62%     43.75% |      133880      0.62%     44.38% |      134319      0.63%     45.00% |      133693      0.62%     45.63% |      134128      0.63%     46.25% |      133851      0.62%     46.87% |      134492      0.63%     47.50% |      134479      0.63%     48.13% |      133344      0.62%     48.75% |      133841      0.62%     49.37% |      134078      0.62%     50.00% |      133964      0.62%     50.62% |      133566      0.62%     51.25% |      133524      0.62%     51.87% |      134283      0.63%     52.49% |      133603      0.62%     53.12% |      134452      0.63%     53.74% |      134060      0.62%     54.37% |      134462      0.63%     55.00% |      134446      0.63%     55.62% |      133479      0.62%     56.24% |      134537      0.63%     56.87% |      134697      0.63%     57.50% |      133781      0.62%     58.12% |      134536      0.63%     58.75% |      134683      0.63%     59.38% |      134025      0.62%     60.00% |      134502      0.63%     60.63% |      133996      0.62%     61.25% |      134035      0.62%     61.88% |      134201      0.63%     62.50% |      134624      0.63%     63.13% |      133561      0.62%     63.75% |      134062      0.62%     64.38% |      133829      0.62%     65.00% |      133667      0.62%     65.63% |      134059      0.62%     66.25% |      134306      0.63%     66.88% |      133960      0.62%     67.50% |      134006      0.62%     68.13% |      133711      0.62%     68.75% |      134004      0.62%     69.37% |      134299      0.63%     70.00% |      134558      0.63%     70.63% |      133767      0.62%     71.25% |      134344      0.63%     71.88% |      134106      0.63%     72.50% |      134310      0.63%     73.13% |      133433      0.62%     73.75% |      134435      0.63%     74.38% |      133778      0.62%     75.00% |      133253      0.62%     75.62% |      134375      0.63%     76.25% |      133934      0.62%     76.87% |      134367      0.63%     77.50% |      134362      0.63%     78.13% |      133906      0.62%     78.75% |      133813      0.62%     79.37% |      134194      0.63%     80.00% |      134119      0.63%     80.62% |      133997      0.62%     81.25% |      133683      0.62%     81.87% |      134141      0.63%     82.50% |      133930      0.62%     83.12% |      134484      0.63%     83.75% |      134376      0.63%     84.37% |      134058      0.62%     85.00% |      133508      0.62%     85.62% |      133931      0.62%     86.25% |      133810      0.62%     86.87% |      134461      0.63%     87.50% |      133966      0.62%     88.12% |      134087      0.63%     88.75% |      133992      0.62%     89.37% |      134199      0.63%     90.00% |      133408      0.62%     90.62% |      134035      0.62%     91.24% |      134145      0.63%     91.87% |      133929      0.62%     92.49% |      133838      0.62%     93.12% |      134314      0.63%     93.74% |      133953      0.62%     94.37% |      133937      0.62%     94.99% |      134182      0.63%     95.62% |      133989      0.62%     96.24% |      134314      0.63%     96.87% |      134511      0.63%     97.49% |      134542      0.63%     98.12% |      134003      0.62%     98.75% |      134660      0.63%     99.37% |      134197      0.63%    100.00% (Unspecified)
system.ruby.Directory_Controller.Receive_Request::total     21452513                       (Unspecified)
system.ruby.Directory_Controller.Receive_Response |       51435      0.62%      0.62% |       51440      0.62%      1.25% |       51643      0.63%      1.87% |       51415      0.62%      2.50% |       51404      0.62%      3.12% |       51331      0.62%      3.74% |       51790      0.63%      4.37% |       51440      0.62%      4.99% |       51777      0.63%      5.62% |       51724      0.63%      6.25% |       51564      0.62%      6.87% |       51764      0.63%      7.50% |       51370      0.62%      8.12% |       51482      0.62%      8.75% |       51479      0.62%      9.37% |       51336      0.62%      9.99% |       51130      0.62%     10.61% |       51336      0.62%     11.23% |       51290      0.62%     11.85% |       51362      0.62%     12.48% |       51380      0.62%     13.10% |       51681      0.63%     13.73% |       51689      0.63%     14.35% |       51727      0.63%     14.98% |       51306      0.62%     15.60% |       51361      0.62%     16.22% |       51757      0.63%     16.85% |       51706      0.63%     17.48% |       51522      0.62%     18.10% |       51201      0.62%     18.72% |       51517      0.62%     19.35% |       51320      0.62%     19.97% |       51324      0.62%     20.59% |       51935      0.63%     21.22% |       51325      0.62%     21.84% |       51643      0.63%     22.47% |       51393      0.62%     23.09% |       51779      0.63%     23.72% |       51379      0.62%     24.34% |       51902      0.63%     24.97% |       51458      0.62%     25.59% |       51690      0.63%     26.22% |       51369      0.62%     26.84% |       51451      0.62%     27.47% |       51659      0.63%     28.09% |       51752      0.63%     28.72% |       51576      0.63%     29.35% |       51420      0.62%     29.97% |       52161      0.63%     30.60% |       51514      0.62%     31.22% |       51421      0.62%     31.85% |       51618      0.63%     32.47% |       51615      0.63%     33.10% |       51543      0.62%     33.72% |       51643      0.63%     34.35% |       51683      0.63%     34.98% |       51390      0.62%     35.60% |       51385      0.62%     36.22% |       51814      0.63%     36.85% |       51847      0.63%     37.48% |       51356      0.62%     38.10% |       51304      0.62%     38.72% |       51834      0.63%     39.35% |       51815      0.63%     39.98% |       51469      0.62%     40.60% |       51437      0.62%     41.23% |       52019      0.63%     41.86% |       51566      0.62%     42.48% |       51664      0.63%     43.11% |       51558      0.62%     43.73% |       51846      0.63%     44.36% |       51615      0.63%     44.99% |       51671      0.63%     45.61% |       50875      0.62%     46.23% |       52147      0.63%     46.86% |       51697      0.63%     47.49% |       51581      0.63%     48.11% |       51956      0.63%     48.74% |       51693      0.63%     49.37% |       51278      0.62%     49.99% |       51638      0.63%     50.62% |       52078      0.63%     51.25% |       51468      0.62%     51.87% |       51372      0.62%     52.49% |       51202      0.62%     53.11% |       51243      0.62%     53.73% |       51824      0.63%     54.36% |       51810      0.63%     54.99% |       51370      0.62%     55.61% |       51579      0.63%     56.24% |       51135      0.62%     56.86% |       51354      0.62%     57.48% |       51910      0.63%     58.11% |       51875      0.63%     58.74% |       51507      0.62%     59.36% |       51421      0.62%     59.99% |       51493      0.62%     60.61% |       51410      0.62%     61.23% |       51273      0.62%     61.85% |       51555      0.62%     62.48% |       51821      0.63%     63.11% |       51526      0.62%     63.73% |       52167      0.63%     64.36% |       51394      0.62%     64.99% |       51683      0.63%     65.61% |       51948      0.63%     66.24% |       51822      0.63%     66.87% |       51502      0.62%     67.49% |       51529      0.62%     68.12% |       51498      0.62%     68.74% |       51396      0.62%     69.37% |       52010      0.63%     70.00% |       51933      0.63%     70.63% |       51736      0.63%     71.25% |       51550      0.62%     71.88% |       51420      0.62%     72.50% |       51766      0.63%     73.13% |       51478      0.62%     73.75% |       51157      0.62%     74.37% |       51274      0.62%     74.99% |       51907      0.63%     75.62% |       51564      0.62%     76.25% |       51265      0.62%     76.87% |       51913      0.63%     77.50% |       51568      0.62%     78.12% |       51827      0.63%     78.75% |       51157      0.62%     79.37% |       51506      0.62%     80.00% |       51652      0.63%     80.62% |       51315      0.62%     81.24% |       51591      0.63%     81.87% |       51419      0.62%     82.49% |       51260      0.62%     83.11% |       51632      0.63%     83.74% |       51763      0.63%     84.37% |       51627      0.63%     84.99% |       51702      0.63%     85.62% |       51533      0.62%     86.24% |       51499      0.62%     86.87% |       51675      0.63%     87.49% |       51538      0.62%     88.12% |       51574      0.63%     88.74% |       51751      0.63%     89.37% |       51668      0.63%     90.00% |       51602      0.63%     90.62% |       51755      0.63%     91.25% |       51437      0.62%     91.87% |       51913      0.63%     92.50% |       51494      0.62%     93.13% |       51808      0.63%     93.75% |       51485      0.62%     94.38% |       51138      0.62%     95.00% |       51744      0.63%     95.62% |       51274      0.62%     96.25% |       51793      0.63%     96.87% |       51642      0.63%     97.50% |       51742      0.63%     98.13% |       51518      0.62%     98.75% |       51739      0.63%     99.38% |       51330      0.62%    100.00% (Unspecified)
system.ruby.Directory_Controller.Receive_Response::total      8251196                       (Unspecified)
system.ruby.Directory_Controller.I.Receive_Request |      133373      0.62%      0.62% |      133889      0.62%      1.25% |      133964      0.62%      1.87% |      134032      0.62%      2.50% |      134810      0.63%      3.12% |      133976      0.62%      3.75% |      134065      0.62%      4.37% |      134134      0.63%      5.00% |      134474      0.63%      5.63% |      133879      0.62%      6.25% |      133997      0.62%      6.87% |      133912      0.62%      7.50% |      134312      0.63%      8.12% |      133911      0.62%      8.75% |      133722      0.62%      9.37% |      133607      0.62%      9.99% |      133991      0.62%     10.62% |      134279      0.63%     11.24% |      134096      0.63%     11.87% |      134270      0.63%     12.50% |      134749      0.63%     13.12% |      134299      0.63%     13.75% |      134209      0.63%     14.38% |      133709      0.62%     15.00% |      133631      0.62%     15.62% |      134637      0.63%     16.25% |      133601      0.62%     16.87% |      134440      0.63%     17.50% |      134221      0.63%     18.12% |      134866      0.63%     18.75% |      133935      0.62%     19.38% |      134288      0.63%     20.00% |      134873      0.63%     20.63% |      134080      0.63%     21.26% |      134054      0.62%     21.88% |      134155      0.63%     22.51% |      134369      0.63%     23.13% |      133850      0.62%     23.76% |      134277      0.63%     24.38% |      134144      0.63%     25.01% |      133870      0.62%     25.63% |      134029      0.62%     26.26% |      133710      0.62%     26.88% |      134391      0.63%     27.51% |      133542      0.62%     28.13% |      134469      0.63%     28.76% |      134321      0.63%     29.38% |      133839      0.62%     30.01% |      133865      0.62%     30.63% |      134289      0.63%     31.26% |      134359      0.63%     31.88% |      134101      0.63%     32.51% |      133960      0.62%     33.13% |      134090      0.63%     33.76% |      133628      0.62%     34.38% |      134197      0.63%     35.01% |      133519      0.62%     35.63% |      133990      0.62%     36.25% |      134233      0.63%     36.88% |      134484      0.63%     37.51% |      134352      0.63%     38.13% |      133359      0.62%     38.75% |      134423      0.63%     39.38% |      134175      0.63%     40.01% |      133636      0.62%     40.63% |      134143      0.63%     41.25% |      134435      0.63%     41.88% |      133884      0.62%     42.50% |      133616      0.62%     43.13% |      133865      0.62%     43.75% |      133880      0.62%     44.38% |      134319      0.63%     45.00% |      133693      0.62%     45.63% |      134128      0.63%     46.25% |      133851      0.62%     46.87% |      134492      0.63%     47.50% |      134479      0.63%     48.13% |      133344      0.62%     48.75% |      133841      0.62%     49.37% |      134078      0.62%     50.00% |      133964      0.62%     50.62% |      133566      0.62%     51.25% |      133524      0.62%     51.87% |      134283      0.63%     52.49% |      133603      0.62%     53.12% |      134452      0.63%     53.74% |      134060      0.62%     54.37% |      134462      0.63%     55.00% |      134446      0.63%     55.62% |      133479      0.62%     56.24% |      134537      0.63%     56.87% |      134697      0.63%     57.50% |      133781      0.62%     58.12% |      134536      0.63%     58.75% |      134683      0.63%     59.38% |      134025      0.62%     60.00% |      134502      0.63%     60.63% |      133996      0.62%     61.25% |      134035      0.62%     61.88% |      134201      0.63%     62.50% |      134624      0.63%     63.13% |      133561      0.62%     63.75% |      134062      0.62%     64.38% |      133829      0.62%     65.00% |      133667      0.62%     65.63% |      134059      0.62%     66.25% |      134306      0.63%     66.88% |      133960      0.62%     67.50% |      134006      0.62%     68.13% |      133711      0.62%     68.75% |      134004      0.62%     69.37% |      134299      0.63%     70.00% |      134558      0.63%     70.63% |      133767      0.62%     71.25% |      134344      0.63%     71.88% |      134106      0.63%     72.50% |      134310      0.63%     73.13% |      133433      0.62%     73.75% |      134435      0.63%     74.38% |      133778      0.62%     75.00% |      133253      0.62%     75.62% |      134375      0.63%     76.25% |      133934      0.62%     76.87% |      134367      0.63%     77.50% |      134362      0.63%     78.13% |      133906      0.62%     78.75% |      133813      0.62%     79.37% |      134194      0.63%     80.00% |      134119      0.63%     80.62% |      133997      0.62%     81.25% |      133683      0.62%     81.87% |      134141      0.63%     82.50% |      133930      0.62%     83.12% |      134484      0.63%     83.75% |      134376      0.63%     84.37% |      134058      0.62%     85.00% |      133508      0.62%     85.62% |      133931      0.62%     86.25% |      133810      0.62%     86.87% |      134461      0.63%     87.50% |      133966      0.62%     88.12% |      134087      0.63%     88.75% |      133992      0.62%     89.37% |      134199      0.63%     90.00% |      133408      0.62%     90.62% |      134035      0.62%     91.24% |      134145      0.63%     91.87% |      133929      0.62%     92.49% |      133838      0.62%     93.12% |      134314      0.63%     93.74% |      133953      0.62%     94.37% |      133937      0.62%     94.99% |      134182      0.63%     95.62% |      133989      0.62%     96.24% |      134314      0.63%     96.87% |      134511      0.63%     97.49% |      134542      0.63%     98.12% |      134003      0.62%     98.75% |      134660      0.63%     99.37% |      134197      0.63%    100.00% (Unspecified)
system.ruby.Directory_Controller.I.Receive_Request::total     21452513                       (Unspecified)
system.ruby.Directory_Controller.I.Receive_Response |       51435      0.62%      0.62% |       51440      0.62%      1.25% |       51643      0.63%      1.87% |       51415      0.62%      2.50% |       51404      0.62%      3.12% |       51331      0.62%      3.74% |       51790      0.63%      4.37% |       51440      0.62%      4.99% |       51777      0.63%      5.62% |       51724      0.63%      6.25% |       51564      0.62%      6.87% |       51764      0.63%      7.50% |       51370      0.62%      8.12% |       51482      0.62%      8.75% |       51479      0.62%      9.37% |       51336      0.62%      9.99% |       51130      0.62%     10.61% |       51336      0.62%     11.23% |       51290      0.62%     11.85% |       51362      0.62%     12.48% |       51380      0.62%     13.10% |       51681      0.63%     13.73% |       51689      0.63%     14.35% |       51727      0.63%     14.98% |       51306      0.62%     15.60% |       51361      0.62%     16.22% |       51757      0.63%     16.85% |       51706      0.63%     17.48% |       51522      0.62%     18.10% |       51201      0.62%     18.72% |       51517      0.62%     19.35% |       51320      0.62%     19.97% |       51324      0.62%     20.59% |       51935      0.63%     21.22% |       51325      0.62%     21.84% |       51643      0.63%     22.47% |       51393      0.62%     23.09% |       51779      0.63%     23.72% |       51379      0.62%     24.34% |       51902      0.63%     24.97% |       51458      0.62%     25.59% |       51690      0.63%     26.22% |       51369      0.62%     26.84% |       51451      0.62%     27.47% |       51659      0.63%     28.09% |       51752      0.63%     28.72% |       51576      0.63%     29.35% |       51420      0.62%     29.97% |       52161      0.63%     30.60% |       51514      0.62%     31.22% |       51421      0.62%     31.85% |       51618      0.63%     32.47% |       51615      0.63%     33.10% |       51543      0.62%     33.72% |       51643      0.63%     34.35% |       51683      0.63%     34.98% |       51390      0.62%     35.60% |       51385      0.62%     36.22% |       51814      0.63%     36.85% |       51847      0.63%     37.48% |       51356      0.62%     38.10% |       51304      0.62%     38.72% |       51834      0.63%     39.35% |       51815      0.63%     39.98% |       51469      0.62%     40.60% |       51437      0.62%     41.23% |       52019      0.63%     41.86% |       51566      0.62%     42.48% |       51664      0.63%     43.11% |       51558      0.62%     43.73% |       51846      0.63%     44.36% |       51615      0.63%     44.99% |       51671      0.63%     45.61% |       50875      0.62%     46.23% |       52147      0.63%     46.86% |       51697      0.63%     47.49% |       51581      0.63%     48.11% |       51956      0.63%     48.74% |       51693      0.63%     49.37% |       51278      0.62%     49.99% |       51638      0.63%     50.62% |       52078      0.63%     51.25% |       51468      0.62%     51.87% |       51372      0.62%     52.49% |       51202      0.62%     53.11% |       51243      0.62%     53.73% |       51824      0.63%     54.36% |       51810      0.63%     54.99% |       51370      0.62%     55.61% |       51579      0.63%     56.24% |       51135      0.62%     56.86% |       51354      0.62%     57.48% |       51910      0.63%     58.11% |       51875      0.63%     58.74% |       51507      0.62%     59.36% |       51421      0.62%     59.99% |       51493      0.62%     60.61% |       51410      0.62%     61.23% |       51273      0.62%     61.85% |       51555      0.62%     62.48% |       51821      0.63%     63.11% |       51526      0.62%     63.73% |       52167      0.63%     64.36% |       51394      0.62%     64.99% |       51683      0.63%     65.61% |       51948      0.63%     66.24% |       51822      0.63%     66.87% |       51502      0.62%     67.49% |       51529      0.62%     68.12% |       51498      0.62%     68.74% |       51396      0.62%     69.37% |       52010      0.63%     70.00% |       51933      0.63%     70.63% |       51736      0.63%     71.25% |       51550      0.62%     71.88% |       51420      0.62%     72.50% |       51766      0.63%     73.13% |       51478      0.62%     73.75% |       51157      0.62%     74.37% |       51274      0.62%     74.99% |       51907      0.63%     75.62% |       51564      0.62%     76.25% |       51265      0.62%     76.87% |       51913      0.63%     77.50% |       51568      0.62%     78.12% |       51827      0.63%     78.75% |       51157      0.62%     79.37% |       51506      0.62%     80.00% |       51652      0.63%     80.62% |       51315      0.62%     81.24% |       51591      0.63%     81.87% |       51419      0.62%     82.49% |       51260      0.62%     83.11% |       51632      0.63%     83.74% |       51763      0.63%     84.37% |       51627      0.63%     84.99% |       51702      0.63%     85.62% |       51533      0.62%     86.24% |       51499      0.62%     86.87% |       51675      0.63%     87.49% |       51538      0.62%     88.12% |       51574      0.63%     88.74% |       51751      0.63%     89.37% |       51668      0.63%     90.00% |       51602      0.63%     90.62% |       51755      0.63%     91.25% |       51437      0.62%     91.87% |       51913      0.63%     92.50% |       51494      0.62%     93.13% |       51808      0.63%     93.75% |       51485      0.62%     94.38% |       51138      0.62%     95.00% |       51744      0.63%     95.62% |       51274      0.62%     96.25% |       51793      0.63%     96.87% |       51642      0.63%     97.50% |       51742      0.63%     98.13% |       51518      0.62%     98.75% |       51739      0.63%     99.38% |       51330      0.62%    100.00% (Unspecified)
system.ruby.Directory_Controller.I.Receive_Response::total      8251196                       (Unspecified)
system.ruby.L1Cache_Controller.Request   |      536548      2.50%      2.50% |      537471      2.51%      5.01% |      536917      2.50%      7.51% |      536584      2.50%     10.01% |      536497      2.50%     12.51% |      536874      2.50%     15.01% |      536633      2.50%     17.52% |      537386      2.50%     20.02% |      535951      2.50%     22.52% |      535052      2.49%     25.01% |      536339      2.50%     27.51% |      536357      2.50%     30.01% |      535681      2.50%     32.51% |      535931      2.50%     35.01% |      536520      2.50%     37.51% |      536289      2.50%     40.01% |      537722      2.51%     42.52% |      535807      2.50%     45.01% |      535660      2.50%     47.51% |      535829      2.50%     50.01% |      535844      2.50%     52.51% |      536379      2.50%     55.01% |      535726      2.50%     57.50% |      535607      2.50%     60.00% |      536142      2.50%     62.50% |      536532      2.50%     65.00% |      536068      2.50%     67.50% |      535527      2.50%     70.00% |      537360      2.50%     72.50% |      536107      2.50%     75.00% |      537475      2.51%     77.51% |      536041      2.50%     80.00% |      535953      2.50%     82.50% |      536481      2.50%     85.00% |      536137      2.50%     87.50% |      536798      2.50%     90.00% |      535523      2.50%     92.50% |      536727      2.50%     95.00% |      536222      2.50%     97.50% |      535864      2.50%    100.00% (Unspecified)
system.ruby.L1Cache_Controller.Request::total     21452561                       (Unspecified)
system.ruby.L1Cache_Controller.Response  |      537464      2.51%      2.51% |      535658      2.50%      5.00% |      536043      2.50%      7.50% |      536221      2.50%     10.00% |      537269      2.50%     12.51% |      537131      2.50%     15.01% |      534872      2.49%     17.50% |      535586      2.50%     20.00% |      536123      2.50%     22.50% |      536605      2.50%     25.00% |      536096      2.50%     27.50% |      535918      2.50%     30.00% |      535366      2.50%     32.49% |      536203      2.50%     34.99% |      535672      2.50%     37.49% |      536597      2.50%     39.99% |      536847      2.50%     42.50% |      535760      2.50%     44.99% |      537449      2.51%     47.50% |      535655      2.50%     50.00% |      536376      2.50%     52.50% |      535833      2.50%     54.99% |      536169      2.50%     57.49% |      535923      2.50%     59.99% |      537528      2.51%     62.50% |      536817      2.50%     65.00% |      536760      2.50%     67.50% |      536071      2.50%     70.00% |      535748      2.50%     72.50% |      536697      2.50%     75.00% |      535674      2.50%     77.50% |      536562      2.50%     80.00% |      535477      2.50%     82.50% |      535100      2.49%     84.99% |      536354      2.50%     87.49% |      536918      2.50%     89.99% |      537047      2.50%     92.50% |      536552      2.50%     95.00% |      536310      2.50%     97.50% |      536276      2.50%    100.00% (Unspecified)
system.ruby.L1Cache_Controller.Response::total     21450727                       (Unspecified)
system.ruby.L1Cache_Controller.I.Request |      536548      2.50%      2.50% |      537471      2.51%      5.01% |      536917      2.50%      7.51% |      536584      2.50%     10.01% |      536497      2.50%     12.51% |      536874      2.50%     15.01% |      536633      2.50%     17.52% |      537386      2.50%     20.02% |      535951      2.50%     22.52% |      535052      2.49%     25.01% |      536339      2.50%     27.51% |      536357      2.50%     30.01% |      535681      2.50%     32.51% |      535931      2.50%     35.01% |      536520      2.50%     37.51% |      536289      2.50%     40.01% |      537722      2.51%     42.52% |      535807      2.50%     45.01% |      535660      2.50%     47.51% |      535829      2.50%     50.01% |      535844      2.50%     52.51% |      536379      2.50%     55.01% |      535726      2.50%     57.50% |      535607      2.50%     60.00% |      536142      2.50%     62.50% |      536532      2.50%     65.00% |      536068      2.50%     67.50% |      535527      2.50%     70.00% |      537360      2.50%     72.50% |      536107      2.50%     75.00% |      537475      2.51%     77.51% |      536041      2.50%     80.00% |      535953      2.50%     82.50% |      536481      2.50%     85.00% |      536137      2.50%     87.50% |      536798      2.50%     90.00% |      535523      2.50%     92.50% |      536727      2.50%     95.00% |      536222      2.50%     97.50% |      535864      2.50%    100.00% (Unspecified)
system.ruby.L1Cache_Controller.I.Request::total     21452561                       (Unspecified)
system.ruby.L1Cache_Controller.I.Response |      537464      2.51%      2.51% |      535658      2.50%      5.00% |      536043      2.50%      7.50% |      536221      2.50%     10.00% |      537269      2.50%     12.51% |      537131      2.50%     15.01% |      534872      2.49%     17.50% |      535586      2.50%     20.00% |      536123      2.50%     22.50% |      536605      2.50%     25.00% |      536096      2.50%     27.50% |      535918      2.50%     30.00% |      535366      2.50%     32.49% |      536203      2.50%     34.99% |      535672      2.50%     37.49% |      536597      2.50%     39.99% |      536847      2.50%     42.50% |      535760      2.50%     44.99% |      537449      2.51%     47.50% |      535655      2.50%     50.00% |      536376      2.50%     52.50% |      535833      2.50%     54.99% |      536169      2.50%     57.49% |      535923      2.50%     59.99% |      537528      2.51%     62.50% |      536817      2.50%     65.00% |      536760      2.50%     67.50% |      536071      2.50%     70.00% |      535748      2.50%     72.50% |      536697      2.50%     75.00% |      535674      2.50%     77.50% |      536562      2.50%     80.00% |      535477      2.50%     82.50% |      535100      2.49%     84.99% |      536354      2.50%     87.49% |      536918      2.50%     89.99% |      537047      2.50%     92.50% |      536552      2.50%     95.00% |      536310      2.50%     97.50% |      536276      2.50%    100.00% (Unspecified)
system.ruby.L1Cache_Controller.I.Response::total     21450727                       (Unspecified)
system.ruby.RequestType.LD.latency_hist_seqr::bucket_size            1                       (Unspecified)
system.ruby.RequestType.LD.latency_hist_seqr::max_bucket            9                       (Unspecified)
system.ruby.RequestType.LD.latency_hist_seqr::samples     21452561                       (Unspecified)
system.ruby.RequestType.LD.latency_hist_seqr::mean            1                       (Unspecified)
system.ruby.RequestType.LD.latency_hist_seqr::gmean            1                       (Unspecified)
system.ruby.RequestType.LD.latency_hist_seqr |           0      0.00%      0.00% |    21452561    100.00%    100.00% |           0      0.00%    100.00% |           0      0.00%    100.00% |           0      0.00%    100.00% |           0      0.00%    100.00% |           0      0.00%    100.00% |           0      0.00%    100.00% |           0      0.00%    100.00% |           0      0.00%    100.00% (Unspecified)
system.ruby.RequestType.LD.latency_hist_seqr::total     21452561                       (Unspecified)
system.ruby.RequestType.LD.hit_latency_hist_seqr::bucket_size            1                       (Unspecified)
system.ruby.RequestType.LD.hit_latency_hist_seqr::max_bucket            9                       (Unspecified)
system.ruby.RequestType.LD.hit_latency_hist_seqr::samples     21452561                       (Unspecified)
system.ruby.RequestType.LD.hit_latency_hist_seqr::mean            1                       (Unspecified)
system.ruby.RequestType.LD.hit_latency_hist_seqr::gmean            1                       (Unspecified)
system.ruby.RequestType.LD.hit_latency_hist_seqr |           0      0.00%      0.00% |    21452561    100.00%    100.00% |           0      0.00%    100.00% |           0      0.00%    100.00% |           0      0.00%    100.00% |           0      0.00%    100.00% |           0      0.00%    100.00% |           0      0.00%    100.00% |           0      0.00%    100.00% |           0      0.00%    100.00% (Unspecified)
system.ruby.RequestType.LD.hit_latency_hist_seqr::total     21452561                       (Unspecified)
system.ruby.RequestType.ST.latency_hist_seqr::bucket_size            1                       (Unspecified)
system.ruby.RequestType.ST.latency_hist_seqr::max_bucket            9                       (Unspecified)
system.ruby.RequestType.ST.latency_hist_seqr::samples     21450727                       (Unspecified)
system.ruby.RequestType.ST.latency_hist_seqr::mean            1                       (Unspecified)
system.ruby.RequestType.ST.latency_hist_seqr::gmean            1                       (Unspecified)
system.ruby.RequestType.ST.latency_hist_seqr |           0      0.00%      0.00% |    21450727    100.00%    100.00% |           0      0.00%    100.00% |           0      0.00%    100.00% |           0      0.00%    100.00% |           0      0.00%    100.00% |           0      0.00%    100.00% |           0      0.00%    100.00% |           0      0.00%    100.00% |           0      0.00%    100.00% (Unspecified)
system.ruby.RequestType.ST.latency_hist_seqr::total     21450727                       (Unspecified)
system.ruby.RequestType.ST.hit_latency_hist_seqr::bucket_size            1                       (Unspecified)
system.ruby.RequestType.ST.hit_latency_hist_seqr::max_bucket            9                       (Unspecified)
system.ruby.RequestType.ST.hit_latency_hist_seqr::samples     21450727                       (Unspecified)
system.ruby.RequestType.ST.hit_latency_hist_seqr::mean            1                       (Unspecified)
system.ruby.RequestType.ST.hit_latency_hist_seqr::gmean            1                       (Unspecified)
system.ruby.RequestType.ST.hit_latency_hist_seqr |           0      0.00%      0.00% |    21450727    100.00%    100.00% |           0      0.00%    100.00% |           0      0.00%    100.00% |           0      0.00%    100.00% |           0      0.00%    100.00% |           0      0.00%    100.00% |           0      0.00%    100.00% |           0      0.00%    100.00% |           0      0.00%    100.00% (Unspecified)
system.ruby.RequestType.ST.hit_latency_hist_seqr::total     21450727                       (Unspecified)
system.ruby.clk_domain.clock                      250                       # Clock period in ticks (Tick)
system.ruby.dir_cntrl0.power_state.pwrStateResidencyTicks::UNDEFINED   2147483750                       # Cumulative time (in ticks) in various power states (Tick)
system.ruby.dir_cntrl0.requestToDir.m_msg_count       133373                       # Number of messages passed the buffer (Count)
system.ruby.dir_cntrl0.requestToDir.m_buf_msgs     0.015527                       # Average number of messages in buffer ((Count/Tick))
system.ruby.dir_cntrl0.responseToDir.m_msg_count        51435                       # Number of messages passed the buffer (Count)
system.ruby.dir_cntrl0.responseToDir.m_buf_msgs     0.005988                       # Average number of messages in buffer ((Count/Tick))
system.ruby.dir_cntrl1.power_state.pwrStateResidencyTicks::UNDEFINED   2147483750                       # Cumulative time (in ticks) in various power states (Tick)
system.ruby.dir_cntrl1.requestToDir.m_msg_count       133889                       # Number of messages passed the buffer (Count)
system.ruby.dir_cntrl1.requestToDir.m_buf_msgs     0.015587                       # Average number of messages in buffer ((Count/Tick))
system.ruby.dir_cntrl1.responseToDir.m_msg_count        51440                       # Number of messages passed the buffer (Count)
system.ruby.dir_cntrl1.responseToDir.m_buf_msgs     0.005988                       # Average number of messages in buffer ((Count/Tick))
system.ruby.dir_cntrl10.power_state.pwrStateResidencyTicks::UNDEFINED   2147483750                       # Cumulative time (in ticks) in various power states (Tick)
system.ruby.dir_cntrl10.requestToDir.m_msg_count       133997                       # Number of messages passed the buffer (Count)
system.ruby.dir_cntrl10.requestToDir.m_buf_msgs     0.015599                       # Average number of messages in buffer ((Count/Tick))
system.ruby.dir_cntrl10.responseToDir.m_msg_count        51564                       # Number of messages passed the buffer (Count)
system.ruby.dir_cntrl10.responseToDir.m_buf_msgs     0.006003                       # Average number of messages in buffer ((Count/Tick))
system.ruby.dir_cntrl100.power_state.pwrStateResidencyTicks::UNDEFINED   2147483750                       # Cumulative time (in ticks) in various power states (Tick)
system.ruby.dir_cntrl100.requestToDir.m_msg_count       134624                       # Number of messages passed the buffer (Count)
system.ruby.dir_cntrl100.requestToDir.m_buf_msgs     0.015672                       # Average number of messages in buffer ((Count/Tick))
system.ruby.dir_cntrl100.responseToDir.m_msg_count        51821                       # Number of messages passed the buffer (Count)
system.ruby.dir_cntrl100.responseToDir.m_buf_msgs     0.006033                       # Average number of messages in buffer ((Count/Tick))
system.ruby.dir_cntrl101.power_state.pwrStateResidencyTicks::UNDEFINED   2147483750                       # Cumulative time (in ticks) in various power states (Tick)
system.ruby.dir_cntrl101.requestToDir.m_msg_count       133561                       # Number of messages passed the buffer (Count)
system.ruby.dir_cntrl101.requestToDir.m_buf_msgs     0.015549                       # Average number of messages in buffer ((Count/Tick))
system.ruby.dir_cntrl101.responseToDir.m_msg_count        51526                       # Number of messages passed the buffer (Count)
system.ruby.dir_cntrl101.responseToDir.m_buf_msgs     0.005998                       # Average number of messages in buffer ((Count/Tick))
system.ruby.dir_cntrl102.power_state.pwrStateResidencyTicks::UNDEFINED   2147483750                       # Cumulative time (in ticks) in various power states (Tick)
system.ruby.dir_cntrl102.requestToDir.m_msg_count       134062                       # Number of messages passed the buffer (Count)
system.ruby.dir_cntrl102.requestToDir.m_buf_msgs     0.015607                       # Average number of messages in buffer ((Count/Tick))
system.ruby.dir_cntrl102.responseToDir.m_msg_count        52167                       # Number of messages passed the buffer (Count)
system.ruby.dir_cntrl102.responseToDir.m_buf_msgs     0.006073                       # Average number of messages in buffer ((Count/Tick))
system.ruby.dir_cntrl103.power_state.pwrStateResidencyTicks::UNDEFINED   2147483750                       # Cumulative time (in ticks) in various power states (Tick)
system.ruby.dir_cntrl103.requestToDir.m_msg_count       133829                       # Number of messages passed the buffer (Count)
system.ruby.dir_cntrl103.requestToDir.m_buf_msgs     0.015580                       # Average number of messages in buffer ((Count/Tick))
system.ruby.dir_cntrl103.responseToDir.m_msg_count        51394                       # Number of messages passed the buffer (Count)
system.ruby.dir_cntrl103.responseToDir.m_buf_msgs     0.005983                       # Average number of messages in buffer ((Count/Tick))
system.ruby.dir_cntrl104.power_state.pwrStateResidencyTicks::UNDEFINED   2147483750                       # Cumulative time (in ticks) in various power states (Tick)
system.ruby.dir_cntrl104.requestToDir.m_msg_count       133667                       # Number of messages passed the buffer (Count)
system.ruby.dir_cntrl104.requestToDir.m_buf_msgs     0.015561                       # Average number of messages in buffer ((Count/Tick))
system.ruby.dir_cntrl104.responseToDir.m_msg_count        51683                       # Number of messages passed the buffer (Count)
system.ruby.dir_cntrl104.responseToDir.m_buf_msgs     0.006017                       # Average number of messages in buffer ((Count/Tick))
system.ruby.dir_cntrl105.power_state.pwrStateResidencyTicks::UNDEFINED   2147483750                       # Cumulative time (in ticks) in various power states (Tick)
system.ruby.dir_cntrl105.requestToDir.m_msg_count       134059                       # Number of messages passed the buffer (Count)
system.ruby.dir_cntrl105.requestToDir.m_buf_msgs     0.015607                       # Average number of messages in buffer ((Count/Tick))
system.ruby.dir_cntrl105.responseToDir.m_msg_count        51948                       # Number of messages passed the buffer (Count)
system.ruby.dir_cntrl105.responseToDir.m_buf_msgs     0.006048                       # Average number of messages in buffer ((Count/Tick))
system.ruby.dir_cntrl106.power_state.pwrStateResidencyTicks::UNDEFINED   2147483750                       # Cumulative time (in ticks) in various power states (Tick)
system.ruby.dir_cntrl106.requestToDir.m_msg_count       134306                       # Number of messages passed the buffer (Count)
system.ruby.dir_cntrl106.requestToDir.m_buf_msgs     0.015635                       # Average number of messages in buffer ((Count/Tick))
system.ruby.dir_cntrl106.responseToDir.m_msg_count        51822                       # Number of messages passed the buffer (Count)
system.ruby.dir_cntrl106.responseToDir.m_buf_msgs     0.006033                       # Average number of messages in buffer ((Count/Tick))
system.ruby.dir_cntrl107.power_state.pwrStateResidencyTicks::UNDEFINED   2147483750                       # Cumulative time (in ticks) in various power states (Tick)
system.ruby.dir_cntrl107.requestToDir.m_msg_count       133960                       # Number of messages passed the buffer (Count)
system.ruby.dir_cntrl107.requestToDir.m_buf_msgs     0.015595                       # Average number of messages in buffer ((Count/Tick))
system.ruby.dir_cntrl107.responseToDir.m_msg_count        51502                       # Number of messages passed the buffer (Count)
system.ruby.dir_cntrl107.responseToDir.m_buf_msgs     0.005996                       # Average number of messages in buffer ((Count/Tick))
system.ruby.dir_cntrl108.power_state.pwrStateResidencyTicks::UNDEFINED   2147483750                       # Cumulative time (in ticks) in various power states (Tick)
system.ruby.dir_cntrl108.requestToDir.m_msg_count       134006                       # Number of messages passed the buffer (Count)
system.ruby.dir_cntrl108.requestToDir.m_buf_msgs     0.015600                       # Average number of messages in buffer ((Count/Tick))
system.ruby.dir_cntrl108.responseToDir.m_msg_count        51529                       # Number of messages passed the buffer (Count)
system.ruby.dir_cntrl108.responseToDir.m_buf_msgs     0.005999                       # Average number of messages in buffer ((Count/Tick))
system.ruby.dir_cntrl109.power_state.pwrStateResidencyTicks::UNDEFINED   2147483750                       # Cumulative time (in ticks) in various power states (Tick)
system.ruby.dir_cntrl109.requestToDir.m_msg_count       133711                       # Number of messages passed the buffer (Count)
system.ruby.dir_cntrl109.requestToDir.m_buf_msgs     0.015566                       # Average number of messages in buffer ((Count/Tick))
system.ruby.dir_cntrl109.responseToDir.m_msg_count        51498                       # Number of messages passed the buffer (Count)
system.ruby.dir_cntrl109.responseToDir.m_buf_msgs     0.005995                       # Average number of messages in buffer ((Count/Tick))
system.ruby.dir_cntrl11.power_state.pwrStateResidencyTicks::UNDEFINED   2147483750                       # Cumulative time (in ticks) in various power states (Tick)
system.ruby.dir_cntrl11.requestToDir.m_msg_count       133912                       # Number of messages passed the buffer (Count)
system.ruby.dir_cntrl11.requestToDir.m_buf_msgs     0.015589                       # Average number of messages in buffer ((Count/Tick))
system.ruby.dir_cntrl11.responseToDir.m_msg_count        51764                       # Number of messages passed the buffer (Count)
[...]
system.ruby.network.sankey.vcvn13.vcvn5             0                       (Unspecified)
system.ruby.network.sankey.vcvn13.vcvn6             0                       (Unspecified)
system.ruby.network.sankey.vcvn13.vcvn7             0                       (Unspecified)
system.ruby.network.sankey.vcvn13.vcvn8             0                       (Unspecified)
system.ruby.network.sankey.vcvn13.vcvn9             0                       (Unspecified)
system.ruby.network.sankey.vcvn14.vcvn0             0                       (Unspecified)
system.ruby.network.sankey.vcvn14.vcvn1             0                       (Unspecified)
system.ruby.network.sankey.vcvn14.vcvn10            0                       (Unspecified)
system.ruby.network.sankey.vcvn14.vcvn11            0                       (Unspecified)
system.ruby.network.sankey.vcvn14.vcvn12      3955417                       (Unspecified)
system.ruby.network.sankey.vcvn14.vcvn13       508260                       (Unspecified)
system.ruby.network.sankey.vcvn14.vcvn14        35410                       (Unspecified)
system.ruby.network.sankey.vcvn14.vcvn15         1490                       (Unspecified)
system.ruby.network.sankey.vcvn14.vcvn16      1109315                       (Unspecified)
system.ruby.network.sankey.vcvn14.vcvn17       868080                       (Unspecified)
system.ruby.network.sankey.vcvn14.vcvn2             0                       (Unspecified)
system.ruby.network.sankey.vcvn14.vcvn3             0                       (Unspecified)
system.ruby.network.sankey.vcvn14.vcvn4             0                       (Unspecified)
system.ruby.network.sankey.vcvn14.vcvn5             0                       (Unspecified)
system.ruby.network.sankey.vcvn14.vcvn6             0                       (Unspecified)
system.ruby.network.sankey.vcvn14.vcvn7             0                       (Unspecified)
system.ruby.network.sankey.vcvn14.vcvn8             0                       (Unspecified)
system.ruby.network.sankey.vcvn14.vcvn9             0                       (Unspecified)
system.ruby.network.sankey.vcvn15.vcvn0             0                       (Unspecified)
system.ruby.network.sankey.vcvn15.vcvn1             0                       (Unspecified)
system.ruby.network.sankey.vcvn15.vcvn10            0                       (Unspecified)
system.ruby.network.sankey.vcvn15.vcvn11            0                       (Unspecified)
system.ruby.network.sankey.vcvn15.vcvn12      2880790                       (Unspecified)
system.ruby.network.sankey.vcvn15.vcvn13       369846                       (Unspecified)
system.ruby.network.sankey.vcvn15.vcvn14        25560                       (Unspecified)
system.ruby.network.sankey.vcvn15.vcvn15         1115                       (Unspecified)
system.ruby.network.sankey.vcvn15.vcvn16       867635                       (Unspecified)
system.ruby.network.sankey.vcvn15.vcvn17       657580                       (Unspecified)
system.ruby.network.sankey.vcvn15.vcvn2             0                       (Unspecified)
system.ruby.network.sankey.vcvn15.vcvn3             0                       (Unspecified)
system.ruby.network.sankey.vcvn15.vcvn4             0                       (Unspecified)
system.ruby.network.sankey.vcvn15.vcvn5             0                       (Unspecified)
system.ruby.network.sankey.vcvn15.vcvn6             0                       (Unspecified)
system.ruby.network.sankey.vcvn15.vcvn7             0                       (Unspecified)
system.ruby.network.sankey.vcvn15.vcvn8             0                       (Unspecified)
system.ruby.network.sankey.vcvn15.vcvn9             0                       (Unspecified)
system.ruby.network.sankey.vcvn16.vcvn0             0                       (Unspecified)
system.ruby.network.sankey.vcvn16.vcvn1             0                       (Unspecified)
system.ruby.network.sankey.vcvn16.vcvn10            0                       (Unspecified)
system.ruby.network.sankey.vcvn16.vcvn11            0                       (Unspecified)
system.ruby.network.sankey.vcvn16.vcvn12            0                       (Unspecified)
system.ruby.network.sankey.vcvn16.vcvn13            0                       (Unspecified)
system.ruby.network.sankey.vcvn16.vcvn14            0                       (Unspecified)
system.ruby.network.sankey.vcvn16.vcvn15            0                       (Unspecified)
system.ruby.network.sankey.vcvn16.vcvn16      2116565                       (Unspecified)
system.ruby.network.sankey.vcvn16.vcvn17            0                       (Unspecified)
system.ruby.network.sankey.vcvn16.vcvn2             0                       (Unspecified)
system.ruby.network.sankey.vcvn16.vcvn3             0                       (Unspecified)
system.ruby.network.sankey.vcvn16.vcvn4             0                       (Unspecified)
system.ruby.network.sankey.vcvn16.vcvn5             0                       (Unspecified)
system.ruby.network.sankey.vcvn16.vcvn6             0                       (Unspecified)
system.ruby.network.sankey.vcvn16.vcvn7             0                       (Unspecified)
system.ruby.network.sankey.vcvn16.vcvn8             0                       (Unspecified)
system.ruby.network.sankey.vcvn16.vcvn9             0                       (Unspecified)
system.ruby.network.sankey.vcvn17.vcvn0             0                       (Unspecified)
system.ruby.network.sankey.vcvn17.vcvn1             0                       (Unspecified)
system.ruby.network.sankey.vcvn17.vcvn10            0                       (Unspecified)
system.ruby.network.sankey.vcvn17.vcvn11            0                       (Unspecified)
system.ruby.network.sankey.vcvn17.vcvn12            0                       (Unspecified)
system.ruby.network.sankey.vcvn17.vcvn13            0                       (Unspecified)
system.ruby.network.sankey.vcvn17.vcvn14            0                       (Unspecified)
system.ruby.network.sankey.vcvn17.vcvn15            0                       (Unspecified)
system.ruby.network.sankey.vcvn17.vcvn16            0                       (Unspecified)
system.ruby.network.sankey.vcvn17.vcvn17      1327700                       (Unspecified)
system.ruby.network.sankey.vcvn17.vcvn2             0                       (Unspecified)
system.ruby.network.sankey.vcvn17.vcvn3             0                       (Unspecified)
system.ruby.network.sankey.vcvn17.vcvn4             0                       (Unspecified)
system.ruby.network.sankey.vcvn17.vcvn5             0                       (Unspecified)
system.ruby.network.sankey.vcvn17.vcvn6             0                       (Unspecified)
system.ruby.network.sankey.vcvn17.vcvn7             0                       (Unspecified)
system.ruby.network.sankey.vcvn17.vcvn8             0                       (Unspecified)
system.ruby.network.sankey.vcvn17.vcvn9             0                       (Unspecified)
system.ruby.network.sankey.vcvn2.vcvn0        3773108                       (Unspecified)
system.ruby.network.sankey.vcvn2.vcvn1         289199                       (Unspecified)
system.ruby.network.sankey.vcvn2.vcvn10             0                       (Unspecified)
system.ruby.network.sankey.vcvn2.vcvn11             0                       (Unspecified)
system.ruby.network.sankey.vcvn2.vcvn12             0                       (Unspecified)
system.ruby.network.sankey.vcvn2.vcvn13             0                       (Unspecified)
system.ruby.network.sankey.vcvn2.vcvn14             0                       (Unspecified)
system.ruby.network.sankey.vcvn2.vcvn15             0                       (Unspecified)
system.ruby.network.sankey.vcvn2.vcvn16             0                       (Unspecified)
system.ruby.network.sankey.vcvn2.vcvn17             0                       (Unspecified)
system.ruby.network.sankey.vcvn2.vcvn2          10520                       (Unspecified)
system.ruby.network.sankey.vcvn2.vcvn3            241                       (Unspecified)
system.ruby.network.sankey.vcvn2.vcvn4           7744                       (Unspecified)
system.ruby.network.sankey.vcvn2.vcvn5          15765                       (Unspecified)
system.ruby.network.sankey.vcvn2.vcvn6              0                       (Unspecified)
system.ruby.network.sankey.vcvn2.vcvn7              0                       (Unspecified)
system.ruby.network.sankey.vcvn2.vcvn8              0                       (Unspecified)
system.ruby.network.sankey.vcvn2.vcvn9              0                       (Unspecified)
system.ruby.network.sankey.vcvn3.vcvn0        3771063                       (Unspecified)
system.ruby.network.sankey.vcvn3.vcvn1         289778                       (Unspecified)
system.ruby.network.sankey.vcvn3.vcvn10             0                       (Unspecified)
system.ruby.network.sankey.vcvn3.vcvn11             0                       (Unspecified)
system.ruby.network.sankey.vcvn3.vcvn12             0                       (Unspecified)
system.ruby.network.sankey.vcvn3.vcvn13             0                       (Unspecified)
system.ruby.network.sankey.vcvn3.vcvn14             0                       (Unspecified)
system.ruby.network.sankey.vcvn3.vcvn15             0                       (Unspecified)
system.ruby.network.sankey.vcvn3.vcvn16             0                       (Unspecified)
system.ruby.network.sankey.vcvn3.vcvn17             0                       (Unspecified)
system.ruby.network.sankey.vcvn3.vcvn2          10608                       (Unspecified)
system.ruby.network.sankey.vcvn3.vcvn3            230                       (Unspecified)
system.ruby.network.sankey.vcvn3.vcvn4           7967                       (Unspecified)
system.ruby.network.sankey.vcvn3.vcvn5          16475                       (Unspecified)
system.ruby.network.sankey.vcvn3.vcvn6              0                       (Unspecified)
system.ruby.network.sankey.vcvn3.vcvn7              0                       (Unspecified)
system.ruby.network.sankey.vcvn3.vcvn8              0                       (Unspecified)
system.ruby.network.sankey.vcvn3.vcvn9              0                       (Unspecified)
system.ruby.network.sankey.vcvn4.vcvn0              0                       (Unspecified)
system.ruby.network.sankey.vcvn4.vcvn1              0                       (Unspecified)
system.ruby.network.sankey.vcvn4.vcvn10             0                       (Unspecified)
system.ruby.network.sankey.vcvn4.vcvn11             0                       (Unspecified)
system.ruby.network.sankey.vcvn4.vcvn12             0                       (Unspecified)
system.ruby.network.sankey.vcvn4.vcvn13             0                       (Unspecified)
system.ruby.network.sankey.vcvn4.vcvn14             0                       (Unspecified)
system.ruby.network.sankey.vcvn4.vcvn15             0                       (Unspecified)
system.ruby.network.sankey.vcvn4.vcvn16             0                       (Unspecified)
system.ruby.network.sankey.vcvn4.vcvn17             0                       (Unspecified)
system.ruby.network.sankey.vcvn4.vcvn2              0                       (Unspecified)
system.ruby.network.sankey.vcvn4.vcvn3              0                       (Unspecified)
system.ruby.network.sankey.vcvn4.vcvn4        1106027                       (Unspecified)
system.ruby.network.sankey.vcvn4.vcvn5              0                       (Unspecified)
system.ruby.network.sankey.vcvn4.vcvn6              0                       (Unspecified)
system.ruby.network.sankey.vcvn4.vcvn7              0                       (Unspecified)
system.ruby.network.sankey.vcvn4.vcvn8              0                       (Unspecified)
system.ruby.network.sankey.vcvn4.vcvn9              0                       (Unspecified)
system.ruby.network.sankey.vcvn5.vcvn0              0                       (Unspecified)
system.ruby.network.sankey.vcvn5.vcvn1              0                       (Unspecified)
system.ruby.network.sankey.vcvn5.vcvn10             0                       (Unspecified)
system.ruby.network.sankey.vcvn5.vcvn11             0                       (Unspecified)
system.ruby.network.sankey.vcvn5.vcvn12             0                       (Unspecified)
system.ruby.network.sankey.vcvn5.vcvn13             0                       (Unspecified)
system.ruby.network.sankey.vcvn5.vcvn14             0                       (Unspecified)
system.ruby.network.sankey.vcvn5.vcvn15             0                       (Unspecified)
system.ruby.network.sankey.vcvn5.vcvn16             0                       (Unspecified)
system.ruby.network.sankey.vcvn5.vcvn17             0                       (Unspecified)
system.ruby.network.sankey.vcvn5.vcvn2              0                       (Unspecified)
system.ruby.network.sankey.vcvn5.vcvn3              0                       (Unspecified)
system.ruby.network.sankey.vcvn5.vcvn4              0                       (Unspecified)
system.ruby.network.sankey.vcvn5.vcvn5        3959887                       (Unspecified)
system.ruby.network.sankey.vcvn5.vcvn6              0                       (Unspecified)
system.ruby.network.sankey.vcvn5.vcvn7              0                       (Unspecified)
system.ruby.network.sankey.vcvn5.vcvn8              0                       (Unspecified)
system.ruby.network.sankey.vcvn5.vcvn9              0                       (Unspecified)
system.ruby.network.sankey.vcvn6.vcvn0              0                       (Unspecified)
system.ruby.network.sankey.vcvn6.vcvn1              0                       (Unspecified)
system.ruby.network.sankey.vcvn6.vcvn10             0                       (Unspecified)
system.ruby.network.sankey.vcvn6.vcvn11             0                       (Unspecified)
system.ruby.network.sankey.vcvn6.vcvn12             0                       (Unspecified)
system.ruby.network.sankey.vcvn6.vcvn13             0                       (Unspecified)
system.ruby.network.sankey.vcvn6.vcvn14             0                       (Unspecified)
system.ruby.network.sankey.vcvn6.vcvn15             0                       (Unspecified)
system.ruby.network.sankey.vcvn6.vcvn16             0                       (Unspecified)
system.ruby.network.sankey.vcvn6.vcvn17             0                       (Unspecified)
system.ruby.network.sankey.vcvn6.vcvn2              0                       (Unspecified)
system.ruby.network.sankey.vcvn6.vcvn3              0                       (Unspecified)
system.ruby.network.sankey.vcvn6.vcvn4              0                       (Unspecified)
system.ruby.network.sankey.vcvn6.vcvn5              0                       (Unspecified)
system.ruby.network.sankey.vcvn6.vcvn6              0                       (Unspecified)
system.ruby.network.sankey.vcvn6.vcvn7              0                       (Unspecified)
system.ruby.network.sankey.vcvn6.vcvn8              0                       (Unspecified)
system.ruby.network.sankey.vcvn6.vcvn9              0                       (Unspecified)
system.ruby.network.sankey.vcvn7.vcvn0              0                       (Unspecified)
system.ruby.network.sankey.vcvn7.vcvn1              0                       (Unspecified)
system.ruby.network.sankey.vcvn7.vcvn10             0                       (Unspecified)
system.ruby.network.sankey.vcvn7.vcvn11             0                       (Unspecified)
system.ruby.network.sankey.vcvn7.vcvn12             0                       (Unspecified)
system.ruby.network.sankey.vcvn7.vcvn13             0                       (Unspecified)
system.ruby.network.sankey.vcvn7.vcvn14             0                       (Unspecified)
system.ruby.network.sankey.vcvn7.vcvn15             0                       (Unspecified)
system.ruby.network.sankey.vcvn7.vcvn16             0                       (Unspecified)
system.ruby.network.sankey.vcvn7.vcvn17             0                       (Unspecified)
system.ruby.network.sankey.vcvn7.vcvn2              0                       (Unspecified)
system.ruby.network.sankey.vcvn7.vcvn3              0                       (Unspecified)
system.ruby.network.sankey.vcvn7.vcvn4              0                       (Unspecified)
system.ruby.network.sankey.vcvn7.vcvn5              0                       (Unspecified)
system.ruby.network.sankey.vcvn7.vcvn6              0                       (Unspecified)
system.ruby.network.sankey.vcvn7.vcvn7              0                       (Unspecified)
system.ruby.network.sankey.vcvn7.vcvn8              0                       (Unspecified)
system.ruby.network.sankey.vcvn7.vcvn9              0                       (Unspecified)
system.ruby.network.sankey.vcvn8.vcvn0              0                       (Unspecified)
system.ruby.network.sankey.vcvn8.vcvn1              0                       (Unspecified)
system.ruby.network.sankey.vcvn8.vcvn10             0                       (Unspecified)
system.ruby.network.sankey.vcvn8.vcvn11             0                       (Unspecified)
system.ruby.network.sankey.vcvn8.vcvn12             0                       (Unspecified)
system.ruby.network.sankey.vcvn8.vcvn13             0                       (Unspecified)
system.ruby.network.sankey.vcvn8.vcvn14             0                       (Unspecified)
system.ruby.network.sankey.vcvn8.vcvn15             0                       (Unspecified)
system.ruby.network.sankey.vcvn8.vcvn16             0                       (Unspecified)
system.ruby.network.sankey.vcvn8.vcvn17             0                       (Unspecified)
system.ruby.network.sankey.vcvn8.vcvn2              0                       (Unspecified)
system.ruby.network.sankey.vcvn8.vcvn3              0                       (Unspecified)
system.ruby.network.sankey.vcvn8.vcvn4              0                       (Unspecified)
system.ruby.network.sankey.vcvn8.vcvn5              0                       (Unspecified)
system.ruby.network.sankey.vcvn8.vcvn6              0                       (Unspecified)
system.ruby.network.sankey.vcvn8.vcvn7              0                       (Unspecified)
system.ruby.network.sankey.vcvn8.vcvn8              0                       (Unspecified)
system.ruby.network.sankey.vcvn8.vcvn9              0                       (Unspecified)
system.ruby.network.sankey.vcvn9.vcvn0              0                       (Unspecified)
system.ruby.network.sankey.vcvn9.vcvn1              0                       (Unspecified)
system.ruby.network.sankey.vcvn9.vcvn10             0                       (Unspecified)
system.ruby.network.sankey.vcvn9.vcvn11             0                       (Unspecified)
system.ruby.network.sankey.vcvn9.vcvn12             0                       (Unspecified)
system.ruby.network.sankey.vcvn9.vcvn13             0                       (Unspecified)
system.ruby.network.sankey.vcvn9.vcvn14             0                       (Unspecified)
system.ruby.network.sankey.vcvn9.vcvn15             0                       (Unspecified)
system.ruby.network.sankey.vcvn9.vcvn16             0                       (Unspecified)
system.ruby.network.sankey.vcvn9.vcvn17             0                       (Unspecified)
system.ruby.network.sankey.vcvn9.vcvn2              0                       (Unspecified)
system.ruby.network.sankey.vcvn9.vcvn3              0                       (Unspecified)
system.ruby.network.sankey.vcvn9.vcvn4              0                       (Unspecified)
system.ruby.network.sankey.vcvn9.vcvn5              0                       (Unspecified)
system.ruby.network.sankey.vcvn9.vcvn6              0                       (Unspecified)
system.ruby.network.sankey.vcvn9.vcvn7              0                       (Unspecified)
system.ruby.network.sankey.vcvn9.vcvn8              0                       (Unspecified)
system.ruby.network.sankey.vcvn9.vcvn9              0                       (Unspecified)

---------- End Simulation Statistics   ----------
