
---------- Begin Simulation Statistics ----------
simSeconds                                   0.002147                       # Number of seconds simulated (Second)
simTicks                                   2147483750                       # Number of ticks simulated (Tick)
finalTick                                  2147483750                       # Number of ticks from beginning of simulation (restored from checkpoints and never reset) (Tick)
simFreq                                  1000000000000                       # The number of ticks per simulated second ((Tick/Second))
hostSeconds                                   5064.04                       # Real time elapsed on the host (Second)
hostTickRate                                   424065                       # The number of ticks simulated per host second (ticks/s) ((Tick/Second))
hostMemory                                   14081620                       # Number of bytes of host memory used (Byte)
system.clk_domain.clock                           250                       # Clock period in ticks (Tick)
system.cpu0.power_state.pwrStateResidencyTicks::UNDEFINED   2147483750                       # Cumulative time (in ticks) in various power states (Tick)
system.cpu1.power_state.pwrStateResidencyTicks::UNDEFINED   2147483750                       # Cumulative time (in ticks) in various power states (Tick)
system.cpu10.power_state.pwrStateResidencyTicks::UNDEFINED   2147483750                       # Cumulative time (in ticks) in various power states (Tick)
system.cpu11.power_state.pwrStateResidencyTicks::UNDEFINED   2147483750                       # Cumulative time (in ticks) in various power states (Tick)
system.cpu12.power_state.pwrStateResidencyTicks::UNDEFINED   2147483750                       # Cumulative time (in ticks) in various power states (Tick)
system.cpu13.power_state.pwrStateResidencyTicks::UNDEFINED   2147483750                       # Cumulative time (in ticks) in various power states (Tick)
system.cpu14.power_state.pwrStateResidencyTicks::UNDEFINED   2147483750                       # Cumulative time (in ticks) in various power states (Tick)
system.cpu15.power_state.pwrStateResidencyTicks::UNDEFINED   2147483750                       # Cumulative time (in ticks) in various power states (Tick)
system.cpu16.power_state.pwrStateResidencyTicks::UNDEFINED   2147483750                       # Cumulative time (in ticks) in various power states (Tick)
system.cpu17.power_state.pwrStateResidencyTicks::UNDEFINED   2147483750                       # Cumulative time (in ticks) in various power states (Tick)
system.cpu18.power_state.pwrStateResidencyTicks::UNDEFINED   2147483750                       # Cumulative time (in ticks) in various power states (Tick)
system.cpu19.power_state.pwrStateResidencyTicks::UNDEFINED   2147483750                       # Cumulative time (in ticks) in various power states (Tick)
system.cpu2.power_state.pwrStateResidencyTicks::UNDEFINED   2147483750                       # Cumulative time (in ticks) in various power states (Tick)
system.cpu20.power_state.pwrStateResidencyTicks::UNDEFINED   2147483750                       # Cumulative time (in ticks) in various power states (Tick)
system.cpu21.power_state.pwrStateResidencyTicks::UNDEFINED   2147483750                       # Cumulative time (in ticks) in various power states (Tick)
system.cpu22.power_state.pwrStateResidencyTicks::UNDEFINED   2147483750                       # Cumulative time (in ticks) in various power states (Tick)
system.cpu23.power_state.pwrStateResidencyTicks::UNDEFINED   2147483750                       # Cumulative time (in ticks) in various power states (Tick)
system.cpu24.power_state.pwrStateResidencyTicks::UNDEFINED   2147483750                       # Cumulative time (in ticks) in various power states (Tick)
system.cpu25.power_state.pwrStateResidencyTicks::UNDEFINED   2147483750                       # Cumulative time (in ticks) in various power states (Tick)
system.cpu26.power_state.pwrStateResidencyTicks::UNDEFINED   2147483750                       # Cumulative time (in ticks) in various power states (Tick)
system.cpu27.power_state.pwrStateResidencyTicks::UNDEFINED   2147483750                       # Cumulative time (in ticks) in various power states (Tick)
system.cpu28.power_state.pwrStateResidencyTicks::UNDEFINED   2147483750                       # Cumulative time (in ticks) in various power states (Tick)
system.cpu29.power_state.pwrStateResidencyTicks::UNDEFINED   2147483750                       # Cumulative time (in ticks) in various power states (Tick)
system.cpu3.power_state.pwrStateResidencyTicks::UNDEFINED   2147483750                       # Cumulative time (in ticks) in various power states (Tick)
system.cpu30.power_state.pwrStateResidencyTicks::UNDEFINED   2147483750                       # Cumulative time (in ticks) in various power states (Tick)
system.cpu31.power_state.pwrStateResidencyTicks::UNDEFINED   2147483750                       # Cumulative time (in ticks) in various power states (Tick)
system.cpu32.power_state.pwrStateResidencyTicks::UNDEFINED   2147483750                       # Cumulative time (in ticks) in various power states (Tick)
system.cpu33.power_state.pwrStateResidencyTicks::UNDEFINED   2147483750                       # Cumulative time (in ticks) in various power states (Tick)
system.cpu34.power_state.pwrStateResidencyTicks::UNDEFINED   2147483750                       # Cumulative time (in ticks) in various power states (Tick)
system.cpu35.power_state.pwrStateResidencyTicks::UNDEFINED   2147483750                       # Cumulative time (in ticks) in various power states (Tick)
system.cpu36.power_state.pwrStateResidencyTicks::UNDEFINED   2147483750                       # Cumulative time (in ticks) in various power states (Tick)
system.cpu37.power_state.pwrStateResidencyTicks::UNDEFINED   2147483750                       # Cumulative time (in ticks) in various power states (Tick)
system.cpu38.power_state.pwrStateResidencyTicks::UNDEFINED   2147483750                       # Cumulative time (in ticks) in various power states (Tick)
system.cpu39.power_state.pwrStateResidencyTicks::UNDEFINED   2147483750                       # Cumulative time (in ticks) in various power states (Tick)
system.cpu4.power_state.pwrStateResidencyTicks::UNDEFINED   2147483750                       # Cumulative time (in ticks) in various power states (Tick)
system.cpu5.power_state.pwrStateResidencyTicks::UNDEFINED   2147483750                       # Cumulative time (in ticks) in various power states (Tick)
system.cpu6.power_state.pwrStateResidencyTicks::UNDEFINED   2147483750                       # Cumulative time (in ticks) in various power states (Tick)
system.cpu7.power_state.pwrStateResidencyTicks::UNDEFINED   2147483750                       # Cumulative time (in ticks) in various power states (Tick)
system.cpu8.power_state.pwrStateResidencyTicks::UNDEFINED   2147483750                       # Cumulative time (in ticks) in various power states (Tick)
system.cpu9.power_state.pwrStateResidencyTicks::UNDEFINED   2147483750                       # Cumulative time (in ticks) in various power states (Tick)
system.mem_ctrls0.power_state.pwrStateResidencyTicks::UNDEFINED   2147483750                       # Cumulative time (in ticks) in various power states (Tick)
system.mem_ctrls1.power_state.pwrStateResidencyTicks::UNDEFINED   2147483750                       # Cumulative time (in ticks) in various power states (Tick)
system.mem_ctrls10.power_state.pwrStateResidencyTicks::UNDEFINED   2147483750                       # Cumulative time (in ticks) in various power states (Tick)
system.mem_ctrls11.power_state.pwrStateResidencyTicks::UNDEFINED   2147483750                       # Cumulative time (in ticks) in various power states (Tick)
system.mem_ctrls12.power_state.pwrStateResidencyTicks::UNDEFINED   2147483750                       # Cumulative time (in ticks) in various power states (Tick)
system.mem_ctrls13.power_state.pwrStateResidencyTicks::UNDEFINED   2147483750                       # Cumulative time (in ticks) in various power states (Tick)
system.mem_ctrls14.power_state.pwrStateResidencyTicks::UNDEFINED   2147483750                       # Cumulative time (in ticks) in various power states (Tick)
system.mem_ctrls15.power_state.pwrStateResidencyTicks::UNDEFINED   2147483750                       # Cumulative time (in ticks) in various power states (Tick)
system.mem_ctrls16.power_state.pwrStateResidencyTicks::UNDEFINED   2147483750                       # Cumulative time (in ticks) in various power states (Tick)
system.mem_ctrls17.power_state.pwrStateResidencyTicks::UNDEFINED   2147483750                       # Cumulative time (in ticks) in various power states (Tick)
system.mem_ctrls18.power_state.pwrStateResidencyTicks::UNDEFINED   2147483750                       # Cumulative time (in ticks) in various power states (Tick)
system.mem_ctrls19.power_state.pwrStateResidencyTicks::UNDEFINED   2147483750                       # Cumulative time (in ticks) in various power states (Tick)
system.mem_ctrls2.power_state.pwrStateResidencyTicks::UNDEFINED   2147483750                       # Cumulative time (in ticks) in various power states (Tick)
system.mem_ctrls20.power_state.pwrStateResidencyTicks::UNDEFINED   2147483750                       # Cumulative time (in ticks) in various power states (Tick)
system.mem_ctrls21.power_state.pwrStateResidencyTicks::UNDEFINED   2147483750                       # Cumulative time (in ticks) in various power states (Tick)
system.mem_ctrls22.power_state.pwrStateResidencyTicks::UNDEFINED   2147483750                       # Cumulative time (in ticks) in various power states (Tick)
system.mem_ctrls23.power_state.pwrStateResidencyTicks::UNDEFINED   2147483750                       # Cumulative time (in ticks) in various power states (Tick)
system.mem_ctrls24.power_state.pwrStateResidencyTicks::UNDEFINED   2147483750                       # Cumulative time (in ticks) in various power states (Tick)
system.mem_ctrls25.power_state.pwrStateResidencyTicks::UNDEFINED   2147483750                       # Cumulative time (in ticks) in various power states (Tick)
system.mem_ctrls26.power_state.pwrStateResidencyTicks::UNDEFINED   2147483750                       # Cumulative time (in ticks) in various power states (Tick)
system.mem_ctrls27.power_state.pwrStateResidencyTicks::UNDEFINED   2147483750                       # Cumulative time (in ticks) in various power states (Tick)
system.mem_ctrls28.power_state.pwrStateResidencyTicks::UNDEFINED   2147483750                       # Cumulative time (in ticks) in various power states (Tick)
system.mem_ctrls29.power_state.pwrStateResidencyTicks::UNDEFINED   2147483750                       # Cumulative time (in ticks) in various power states (Tick)
system.mem_ctrls3.power_state.pwrStateResidencyTicks::UNDEFINED   2147483750                       # Cumulative time (in ticks) in various power states (Tick)
system.mem_ctrls30.power_state.pwrStateResidencyTicks::UNDEFINED   2147483750                       # Cumulative time (in ticks) in various power states (Tick)
system.mem_ctrls31.power_state.pwrStateResidencyTicks::UNDEFINED   2147483750                       # Cumulative time (in ticks) in various power states (Tick)
system.mem_ctrls32.power_state.pwrStateResidencyTicks::UNDEFINED   2147483750                       # Cumulative time (in ticks) in various power states (Tick)
system.mem_ctrls33.power_state.pwrStateResidencyTicks::UNDEFINED   2147483750                       # Cumulative time (in ticks) in various power states (Tick)
system.mem_ctrls34.power_state.pwrStateResidencyTicks::UNDEFINED   2147483750                       # Cumulative time (in ticks) in various power states (Tick)
system.mem_ctrls35.power_state.pwrStateResidencyTicks::UNDEFINED   2147483750                       # Cumulative time (in ticks) in various power states (Tick)
system.mem_ctrls36.power_state.pwrStateResidencyTicks::UNDEFINED   2147483750                       # Cumulative time (in ticks) in various power states (Tick)
system.mem_ctrls37.power_state.pwrStateResidencyTicks::UNDEFINED   2147483750                       # Cumulative time (in ticks) in various power states (Tick)
system.mem_ctrls38.power_state.pwrStateResidencyTicks::UNDEFINED   2147483750                       # Cumulative time (in ticks) in various power states (Tick)
system.mem_ctrls39.power_state.pwrStateResidencyTicks::UNDEFINED   2147483750                       # Cumulative time (in ticks) in various power states (Tick)
system.mem_ctrls4.power_state.pwrStateResidencyTicks::UNDEFINED   2147483750                       # Cumulative time (in ticks) in various power states (Tick)
system.mem_ctrls40.power_state.pwrStateResidencyTicks::UNDEFINED   2147483750                       # Cumulative time (in ticks) in various power states (Tick)
system.mem_ctrls41.power_state.pwrStateResidencyTicks::UNDEFINED   2147483750                       # Cumulative time (in ticks) in various power states (Tick)
system.mem_ctrls42.power_state.pwrStateResidencyTicks::UNDEFINED   2147483750                       # Cumulative time (in ticks) in various power states (Tick)
system.mem_ctrls43.power_state.pwrStateResidencyTicks::UNDEFINED   2147483750                       # Cumulative time (in ticks) in various power states (Tick)
system.mem_ctrls44.power_state.pwrStateResidencyTicks::UNDEFINED   2147483750                       # Cumulative time (in ticks) in various power states (Tick)
system.mem_ctrls45.power_state.pwrStateResidencyTicks::UNDEFINED   2147483750                       # Cumulative time (in ticks) in various power states (Tick)
system.mem_ctrls46.power_state.pwrStateResidencyTicks::UNDEFINED   2147483750                       # Cumulative time (in ticks) in various power states (Tick)
system.mem_ctrls47.power_state.pwrStateResidencyTicks::UNDEFINED   2147483750                       # Cumulative time (in ticks) in various power states (Tick)
system.mem_ctrls48.power_state.pwrStateResidencyTicks::UNDEFINED   2147483750                       # Cumulative time (in ticks) in various power states (Tick)
system.mem_ctrls49.power_state.pwrStateResidencyTicks::UNDEFINED   2147483750                       # Cumulative time (in ticks) in various power states (Tick)
system.mem_ctrls5.power_state.pwrStateResidencyTicks::UNDEFINED   2147483750                       # Cumulative time (in ticks) in various power states (Tick)
system.mem_ctrls50.power_state.pwrStateResidencyTicks::UNDEFINED   2147483750                       # Cumulative time (in ticks) in various power states (Tick)
system.mem_ctrls51.power_state.pwrStateResidencyTicks::UNDEFINED   2147483750                       # Cumulative time (in ticks) in various power states (Tick)
system.mem_ctrls52.power_state.pwrStateResidencyTicks::UNDEFINED   2147483750                       # Cumulative time (in ticks) in various power states (Tick)
system.mem_ctrls53.power_state.pwrStateResidencyTicks::UNDEFINED   2147483750                       # Cumulative time (in ticks) in various power states (Tick)
system.mem_ctrls54.power_state.pwrStateResidencyTicks::UNDEFINED   2147483750                       # Cumulative time (in ticks) in various power states (Tick)
system.mem_ctrls55.power_state.pwrStateResidencyTicks::UNDEFINED   2147483750                       # Cumulative time (in ticks) in various power states (Tick)
system.mem_ctrls56.power_state.pwrStateResidencyTicks::UNDEFINED   2147483750                       # Cumulative time (in ticks) in various power states (Tick)
system.mem_ctrls57.power_state.pwrStateResidencyTicks::UNDEFINED   2147483750                       # Cumulative time (in ticks) in various power states (Tick)
system.mem_ctrls58.power_state.pwrStateResidencyTicks::UNDEFINED   2147483750                       # Cumulative time (in ticks) in various power states (Tick)
system.mem_ctrls59.power_state.pwrStateResidencyTicks::UNDEFINED   2147483750                       # Cumulative time (in ticks) in various power states (Tick)
system.mem_ctrls6.power_state.pwrStateResidencyTicks::UNDEFINED   2147483750                       # Cumulative time (in ticks) in various power states (Tick)
system.mem_ctrls60.power_state.pwrStateResidencyTicks::UNDEFINED   2147483750                       # Cumulative time (in ticks) in various power states (Tick)
system.mem_ctrls61.power_state.pwrStateResidencyTicks::UNDEFINED   2147483750                       # Cumulative time (in ticks) in various power states (Tick)
system.mem_ctrls62.power_state.pwrStateResidencyTicks::UNDEFINED   2147483750                       # Cumulative time (in ticks) in various power states (Tick)
system.mem_ctrls63.power_state.pwrStateResidencyTicks::UNDEFINED   2147483750                       # Cumulative time (in ticks) in various power states (Tick)
system.mem_ctrls7.power_state.pwrStateResidencyTicks::UNDEFINED   2147483750                       # Cumulative time (in ticks) in various power states (Tick)
system.mem_ctrls8.power_state.pwrStateResidencyTicks::UNDEFINED   2147483750                       # Cumulative time (in ticks) in various power states (Tick)
system.mem_ctrls9.power_state.pwrStateResidencyTicks::UNDEFINED   2147483750                       # Cumulative time (in ticks) in various power states (Tick)
system.ruby.m_outstandReqHistSeqr::bucket_size            1                       (Unspecified)
system.ruby.m_outstandReqHistSeqr::max_bucket            9                       (Unspecified)
system.ruby.m_outstandReqHistSeqr::samples     37752431                       (Unspecified)
system.ruby.m_outstandReqHistSeqr::mean             1                       (Unspecified)
system.ruby.m_outstandReqHistSeqr::gmean            1                       (Unspecified)
system.ruby.m_outstandReqHistSeqr        |           0      0.00%      0.00% |    37752431    100.00%    100.00% |           0      0.00%    100.00% |           0      0.00%    100.00% |           0      0.00%    100.00% |           0      0.00%    100.00% |           0      0.00%    100.00% |           0      0.00%    100.00% |           0      0.00%    100.00% |           0      0.00%    100.00% (Unspecified)
system.ruby.m_outstandReqHistSeqr::total     37752431                       (Unspecified)
system.ruby.m_latencyHistSeqr::bucket_size            1                       (Unspecified)
system.ruby.m_latencyHistSeqr::max_bucket            9                       (Unspecified)
system.ruby.m_latencyHistSeqr::samples       37752426                       (Unspecified)
system.ruby.m_latencyHistSeqr::mean                 1                       (Unspecified)
system.ruby.m_latencyHistSeqr::gmean                1                       (Unspecified)
system.ruby.m_latencyHistSeqr            |           0      0.00%      0.00% |    37752426    100.00%    100.00% |           0      0.00%    100.00% |           0      0.00%    100.00% |           0      0.00%    100.00% |           0      0.00%    100.00% |           0      0.00%    100.00% |           0      0.00%    100.00% |           0      0.00%    100.00% |           0      0.00%    100.00% (Unspecified)
system.ruby.m_latencyHistSeqr::total         37752426                       (Unspecified)
system.ruby.m_hitLatencyHistSeqr::bucket_size            1                       (Unspecified)
system.ruby.m_hitLatencyHistSeqr::max_bucket            9                       (Unspecified)
system.ruby.m_hitLatencyHistSeqr::samples     37752426                       (Unspecified)
system.ruby.m_hitLatencyHistSeqr::mean              1                       (Unspecified)
system.ruby.m_hitLatencyHistSeqr::gmean             1                       (Unspecified)
system.ruby.m_hitLatencyHistSeqr         |           0      0.00%      0.00% |    37752426    100.00%    100.00% |           0      0.00%    100.00% |           0      0.00%    100.00% |           0      0.00%    100.00% |           0      0.00%    100.00% |           0      0.00%    100.00% |           0      0.00%    100.00% |           0      0.00%    100.00% |           0      0.00%    100.00% (Unspecified)
system.ruby.m_hitLatencyHistSeqr::total      37752426                       (Unspecified)
system.ruby.Directory_Controller.Receive_Request |      294089      1.56%      1.56% |      295325      1.56%      3.12% |      295132      1.56%      4.69% |      295529      1.57%      6.25% |      294895      1.56%      7.81% |      294299      1.56%      9.37% |      294973      1.56%     10.93% |      295233      1.56%     12.50% |      295619      1.57%     14.06% |      294265      1.56%     15.62% |      295411      1.56%     17.19% |      296240      1.57%     18.76% |      295461      1.57%     20.32% |      294996      1.56%     21.89% |      294697      1.56%     23.45% |      294873      1.56%     25.01% |      294437      1.56%     26.57% |      294991      1.56%     28.13% |      294886      1.56%     29.69% |      294790      1.56%     31.25% |      295215      1.56%     32.82% |      294567      1.56%     34.38% |      294751      1.56%     35.94% |      295289      1.56%     37.50% |      294740      1.56%     39.07% |      294837      1.56%     40.63% |      294980      1.56%     42.19% |      294759      1.56%     43.75% |      294636      1.56%     45.31% |      294562      1.56%     46.87% |      295631      1.57%     48.44% |      294557      1.56%     50.00% |      294276      1.56%     51.56% |      294823      1.56%     53.12% |      295073      1.56%     54.68% |      295132      1.56%     56.25% |      295909      1.57%     57.81% |      296214      1.57%     59.38% |      295323      1.56%     60.95% |      295051      1.56%     62.51% |      295562      1.57%     64.08% |      294005      1.56%     65.63% |      295219      1.56%     67.20% |      294468      1.56%     68.76% |      295326      1.56%     70.32% |      295465      1.57%     71.89% |      295053      1.56%     73.45% |      294652      1.56%     75.01% |      293707      1.56%     76.57% |      295714      1.57%     78.13% |      294410      1.56%     79.69% |      295274      1.56%     81.26% |      294812      1.56%     82.82% |      295172      1.56%     84.38% |      293895      1.56%     85.94% |      294885      1.56%     87.50% |      294499      1.56%     89.06% |      294343      1.56%     90.62% |      294893      1.56%     92.18% |      294773      1.56%     93.74% |      295194      1.56%     95.31% |      295331      1.56%     96.87% |      295105      1.56%     98.44% |      295213      1.56%    100.00% (Unspecified)
system.ruby.Directory_Controller.Receive_Request::total     18877436                       (Unspecified)
system.ruby.Directory_Controller.Receive_Response |      109166      1.56%      1.56% |      108727      1.56%      3.12% |      109190      1.56%      4.68% |      109632      1.57%      6.25% |      109479      1.57%      7.82% |      108862      1.56%      9.38% |      108606      1.56%     10.93% |      108614      1.56%     12.49% |      109097      1.56%     14.05% |      109094      1.56%     15.61% |      108971      1.56%     17.17% |      109001      1.56%     18.74% |      109120      1.56%     20.30% |      109313      1.57%     21.86% |      108909      1.56%     23.42% |      108953      1.56%     24.98% |      109239      1.56%     26.55% |      109013      1.56%     28.11% |      109109      1.56%     29.67% |      108903      1.56%     31.23% |      109109      1.56%     32.79% |      109265      1.56%     34.36% |      108771      1.56%     35.91% |      109393      1.57%     37.48% |      108980      1.56%     39.04% |      109143      1.56%     40.60% |      108966      1.56%     42.16% |      108634      1.56%     43.72% |      109078      1.56%     45.28% |      108806      1.56%     46.84% |      109068      1.56%     48.40% |      109043      1.56%     49.96% |      109415      1.57%     51.53% |      109267      1.56%     53.09% |      108646      1.56%     54.65% |      108792      1.56%     56.21% |      109016      1.56%     57.77% |      109419      1.57%     59.34% |      109214      1.56%     60.90% |      109168      1.56%     62.46% |      109468      1.57%     64.03% |      108917      1.56%     65.59% |      109335      1.57%     67.16% |      108959      1.56%     68.72% |      109556      1.57%     70.28% |      109474      1.57%     71.85% |      109620      1.57%     73.42% |      109096      1.56%     74.98% |      109232      1.56%     76.55% |      109135      1.56%     78.11% |      109052      1.56%     79.67% |      109190      1.56%     81.24% |      109129      1.56%     82.80% |      108860      1.56%     84.36% |      109000      1.56%     85.92% |      109494      1.57%     87.49% |      109193      1.56%     89.05% |      109695      1.57%     90.62% |      109492      1.57%     92.19% |      108781      1.56%     93.75% |      109324      1.57%     95.31% |      109195      1.56%     96.87% |      109003      1.56%     98.44% |      109259      1.56%    100.00% (Unspecified)
system.ruby.Directory_Controller.Receive_Response::total      6983650                       (Unspecified)
system.ruby.Directory_Controller.I.Receive_Request |      294089      1.56%      1.56% |      295325      1.56%      3.12% |      295132      1.56%      4.69% |      295529      1.57%      6.25% |      294895      1.56%      7.81% |      294299      1.56%      9.37% |      294973      1.56%     10.93% |      295233      1.56%     12.50% |      295619      1.57%     14.06% |      294265      1.56%     15.62% |      295411      1.56%     17.19% |      296240      1.57%     18.76% |      295461      1.57%     20.32% |      294996      1.56%     21.89% |      294697      1.56%     23.45% |      294873      1.56%     25.01% |      294437      1.56%     26.57% |      294991      1.56%     28.13% |      294886      1.56%     29.69% |      294790      1.56%     31.25% |      295215      1.56%     32.82% |      294567      1.56%     34.38% |      294751      1.56%     35.94% |      295289      1.56%     37.50% |      294740      1.56%     39.07% |      294837      1.56%     40.63% |      294980      1.56%     42.19% |      294759      1.56%     43.75% |      294636      1.56%     45.31% |      294562      1.56%     46.87% |      295631      1.57%     48.44% |      294557      1.56%     50.00% |      294276      1.56%     51.56% |      294823      1.56%     53.12% |      295073      1.56%     54.68% |      295132      1.56%     56.25% |      295909      1.57%     57.81% |      296214      1.57%     59.38% |      295323      1.56%     60.95% |      295051      1.56%     62.51% |      295562      1.57%     64.08% |      294005      1.56%     65.63% |      295219      1.56%     67.20% |      294468      1.56%     68.76% |      295326      1.56%     70.32% |      295465      1.57%     71.89% |      295053      1.56%     73.45% |      294652      1.56%     75.01% |      293707      1.56%     76.57% |      295714      1.57%     78.13% |      294410      1.56%     79.69% |      295274      1.56%     81.26% |      294812      1.56%     82.82% |      295172      1.56%     84.38% |      293895      1.56%     85.94% |      294885      1.56%     87.50% |      294499      1.56%     89.06% |      294343      1.56%     90.62% |      294893      1.56%     92.18% |      294773      1.56%     93.74% |      295194      1.56%     95.31% |      295331      1.56%     96.87% |      295105      1.56%     98.44% |      295213      1.56%    100.00% (Unspecified)
system.ruby.Directory_Controller.I.Receive_Request::total     18877436                       (Unspecified)
system.ruby.Directory_Controller.I.Receive_Response |      109166      1.56%      1.56% |      108727      1.56%      3.12% |      109190      1.56%      4.68% |      109632      1.57%      6.25% |      109479      1.57%      7.82% |      108862      1.56%      9.38% |      108606      1.56%     10.93% |      108614      1.56%     12.49% |      109097      1.56%     14.05% |      109094      1.56%     15.61% |      108971      1.56%     17.17% |      109001      1.56%     18.74% |      109120      1.56%     20.30% |      109313      1.57%     21.86% |      108909      1.56%     23.42% |      108953      1.56%     24.98% |      109239      1.56%     26.55% |      109013      1.56%     28.11% |      109109      1.56%     29.67% |      108903      1.56%     31.23% |      109109      1.56%     32.79% |      109265      1.56%     34.36% |      108771      1.56%     35.91% |      109393      1.57%     37.48% |      108980      1.56%     39.04% |      109143      1.56%     40.60% |      108966      1.56%     42.16% |      108634      1.56%     43.72% |      109078      1.56%     45.28% |      108806      1.56%     46.84% |      109068      1.56%     48.40% |      109043      1.56%     49.96% |      109415      1.57%     51.53% |      109267      1.56%     53.09% |      108646      1.56%     54.65% |      108792      1.56%     56.21% |      109016      1.56%     57.77% |      109419      1.57%     59.34% |      109214      1.56%     60.90% |      109168      1.56%     62.46% |      109468      1.57%     64.03% |      108917      1.56%     65.59% |      109335      1.57%     67.16% |      108959      1.56%     68.72% |      109556      1.57%     70.28% |      109474      1.57%     71.85% |      109620      1.57%     73.42% |      109096      1.56%     74.98% |      109232      1.56%     76.55% |      109135      1.56%     78.11% |      109052      1.56%     79.67% |      109190      1.56%     81.24% |      109129      1.56%     82.80% |      108860      1.56%     84.36% |      109000      1.56%     85.92% |      109494      1.57%     87.49% |      109193      1.56%     89.05% |      109695      1.57%     90.62% |      109492      1.57%     92.19% |      108781      1.56%     93.75% |      109324      1.57%     95.31% |      109195      1.56%     96.87% |      109003      1.56%     98.44% |      109259      1.56%    100.00% (Unspecified)
system.ruby.Directory_Controller.I.Receive_Response::total      6983650                       (Unspecified)
system.ruby.L1Cache_Controller.Request   |      472246      2.50%      2.50% |      471381      2.50%      5.00% |      472543      2.50%      7.50% |      473050      2.51%     10.01% |      472863      2.50%     12.51% |      472108      2.50%     15.01% |      471562      2.50%     17.51% |      471742      2.50%     20.01% |      473194      2.51%     22.52% |      473005      2.51%     25.02% |      470367      2.49%     27.51% |      471915      2.50%     30.01% |      471405      2.50%     32.51% |      472366      2.50%     35.01% |      471755      2.50%     37.51% |      471292      2.50%     40.01% |      472192      2.50%     42.51% |      471850      2.50%     45.01% |      471605      2.50%     47.51% |      471215      2.50%     50.00% |      472413      2.50%     52.51% |      472029      2.50%     55.01% |      471770      2.50%     57.51% |      471901      2.50%     60.01% |      470812      2.49%     62.50% |      471983      2.50%     65.00% |      472091      2.50%     67.50% |      471959      2.50%     70.00% |      472185      2.50%     72.50% |      470891      2.49%     75.00% |      472761      2.50%     77.50% |      470906      2.49%     80.00% |      471609      2.50%     82.49% |      471891      2.50%     84.99% |      471983      2.50%     87.49% |      471794      2.50%     89.99% |      471450      2.50%     92.49% |      472281      2.50%     94.99% |      472113      2.50%     97.49% |      473021      2.51%    100.00% (Unspecified)
system.ruby.L1Cache_Controller.Request::total     18877499                       (Unspecified)
system.ruby.L1Cache_Controller.Response  |      472028      2.50%      2.50% |      471399      2.50%      5.00% |      471741      2.50%      7.50% |      471534      2.50%     10.00% |      472068      2.50%     12.50% |      471974      2.50%     15.00% |      472922      2.51%     17.50% |      471121      2.50%     20.00% |      471576      2.50%     22.50% |      471414      2.50%     24.99% |      472017      2.50%     27.50% |      471129      2.50%     29.99% |      471354      2.50%     32.49% |      471251      2.50%     34.99% |      471733      2.50%     37.48% |      472135      2.50%     39.99% |      471323      2.50%     42.48% |      471877      2.50%     44.98% |      472448      2.50%     47.49% |      471571      2.50%     49.98% |      472469      2.50%     52.49% |      473012      2.51%     54.99% |      471681      2.50%     57.49% |      470676      2.49%     59.99% |      471524      2.50%     62.48% |      472684      2.50%     64.99% |      473178      2.51%     67.50% |      472050      2.50%     70.00% |      471560      2.50%     72.50% |      472179      2.50%     75.00% |      471868      2.50%     77.50% |      472271      2.50%     80.00% |      473236      2.51%     82.51% |      471514      2.50%     85.00% |      470483      2.49%     87.50% |      472108      2.50%     90.00% |      472009      2.50%     92.50% |      471553      2.50%     95.00% |      471802      2.50%     97.50% |      472455      2.50%    100.00% (Unspecified)
system.ruby.L1Cache_Controller.Response::total     18874927                       (Unspecified)
system.ruby.L1Cache_Controller.I.Request |      472246      2.50%      2.50% |      471381      2.50%      5.00% |      472543      2.50%      7.50% |      473050      2.51%     10.01% |      472863      2.50%     12.51% |      472108      2.50%     15.01% |      471562      2.50%     17.51% |      471742      2.50%     20.01% |      473194      2.51%     22.52% |      473005      2.51%     25.02% |      470367      2.49%     27.51% |      471915      2.50%     30.01% |      471405      2.50%     32.51% |      472366      2.50%     35.01% |      471755      2.50%     37.51% |      471292      2.50%     40.01% |      472192      2.50%     42.51% |      471850      2.50%     45.01% |      471605      2.50%     47.51% |      471215      2.50%     50.00% |      472413      2.50%     52.51% |      472029      2.50%     55.01% |      471770      2.50%     57.51% |      471901      2.50%     60.01% |      470812      2.49%     62.50% |      471983      2.50%     65.00% |      472091      2.50%     67.50% |      471959      2.50%     70.00% |      472185      2.50%     72.50% |      470891      2.49%     75.00% |      472761      2.50%     77.50% |      470906      2.49%     80.00% |      471609      2.50%     82.49% |      471891      2.50%     84.99% |      471983      2.50%     87.49% |      471794      2.50%     89.99% |      471450      2.50%     92.49% |      472281      2.50%     94.99% |      472113      2.50%     97.49% |      473021      2.51%    100.00% (Unspecified)
system.ruby.L1Cache_Controller.I.Request::total     18877499                       (Unspecified)
system.ruby.L1Cache_Controller.I.Response |      472028      2.50%      2.50% |      471399      2.50%      5.00% |      471741      2.50%      7.50% |      471534      2.50%     10.00% |      472068      2.50%     12.50% |      471974      2.50%     15.00% |      472922      2.51%     17.50% |      471121      2.50%     20.00% |      471576      2.50%     22.50% |      471414      2.50%     24.99% |      472017      2.50%     27.50% |      471129      2.50%     29.99% |      471354      2.50%     32.49% |      471251      2.50%     34.99% |      471733      2.50%     37.48% |      472135      2.50%     39.99% |      471323      2.50%     42.48% |      471877      2.50%     44.98% |      472448      2.50%     47.49% |      471571      2.50%     49.98% |      472469      2.50%     52.49% |      473012      2.51%     54.99% |      471681      2.50%     57.49% |      470676      2.49%     59.99% |      471524      2.50%     62.48% |      472684      2.50%     64.99% |      473178      2.51%     67.50% |      472050      2.50%     70.00% |      471560      2.50%     72.50% |      472179      2.50%     75.00% |      471868      2.50%     77.50% |      472271      2.50%     80.00% |      473236      2.51%     82.51% |      471514      2.50%     85.00% |      470483      2.49%     87.50% |      472108      2.50%     90.00% |      472009      2.50%     92.50% |      471553      2.50%     95.00% |      471802      2.50%     97.50% |      472455      2.50%    100.00% (Unspecified)
system.ruby.L1Cache_Controller.I.Response::total     18874927                       (Unspecified)
system.ruby.RequestType.LD.latency_hist_seqr::bucket_size            1                       (Unspecified)
system.ruby.RequestType.LD.latency_hist_seqr::max_bucket            9                       (Unspecified)
system.ruby.RequestType.LD.latency_hist_seqr::samples     18877499                       (Unspecified)
system.ruby.RequestType.LD.latency_hist_seqr::mean            1                       (Unspecified)
system.ruby.RequestType.LD.latency_hist_seqr::gmean            1                       (Unspecified)
system.ruby.RequestType.LD.latency_hist_seqr |           0      0.00%      0.00% |    18877499    100.00%    100.00% |           0      0.00%    100.00% |           0      0.00%    100.00% |           0      0.00%    100.00% |           0      0.00%    100.00% |           0      0.00%    100.00% |           0      0.00%    100.00% |           0      0.00%    100.00% |           0      0.00%    100.00% (Unspecified)
system.ruby.RequestType.LD.latency_hist_seqr::total     18877499                       (Unspecified)
system.ruby.RequestType.LD.hit_latency_hist_seqr::bucket_size            1                       (Unspecified)
system.ruby.RequestType.LD.hit_latency_hist_seqr::max_bucket            9                       (Unspecified)
system.ruby.RequestType.LD.hit_latency_hist_seqr::samples     18877499                       (Unspecified)
system.ruby.RequestType.LD.hit_latency_hist_seqr::mean            1                       (Unspecified)
system.ruby.RequestType.LD.hit_latency_hist_seqr::gmean            1                       (Unspecified)
system.ruby.RequestType.LD.hit_latency_hist_seqr |           0      0.00%      0.00% |    18877499    100.00%    100.00% |           0      0.00%    100.00% |           0      0.00%    100.00% |           0      0.00%    100.00% |           0      0.00%    100.00% |           0      0.00%    100.00% |           0      0.00%    100.00% |           0      0.00%    100.00% |           0      0.00%    100.00% (Unspecified)
system.ruby.RequestType.LD.hit_latency_hist_seqr::total     18877499                       (Unspecified)
system.ruby.RequestType.ST.latency_hist_seqr::bucket_size            1                       (Unspecified)
system.ruby.RequestType.ST.latency_hist_seqr::max_bucket            9                       (Unspecified)
system.ruby.RequestType.ST.latency_hist_seqr::samples     18874927                       (Unspecified)
system.ruby.RequestType.ST.latency_hist_seqr::mean            1                       (Unspecified)
system.ruby.RequestType.ST.latency_hist_seqr::gmean            1                       (Unspecified)
system.ruby.RequestType.ST.latency_hist_seqr |           0      0.00%      0.00% |    18874927    100.00%    100.00% |           0      0.00%    100.00% |           0      0.00%    100.00% |           0      0.00%    100.00% |           0      0.00%    100.00% |           0      0.00%    100.00% |           0      0.00%    100.00% |           0      0.00%    100.00% |           0      0.00%    100.00% (Unspecified)
system.ruby.RequestType.ST.latency_hist_seqr::total     18874927                       (Unspecified)
system.ruby.RequestType.ST.hit_latency_hist_seqr::bucket_size            1                       (Unspecified)
system.ruby.RequestType.ST.hit_latency_hist_seqr::max_bucket            9                       (Unspecified)
system.ruby.RequestType.ST.hit_latency_hist_seqr::samples     18874927                       (Unspecified)
system.ruby.RequestType.ST.hit_latency_hist_seqr::mean            1                       (Unspecified)
system.ruby.RequestType.ST.hit_latency_hist_seqr::gmean            1                       (Unspecified)
system.ruby.RequestType.ST.hit_latency_hist_seqr |           0      0.00%      0.00% |    18874927    100.00%    100.00% |           0      0.00%    100.00% |           0      0.00%    100.00% |           0      0.00%    100.00% |           0      0.00%    100.00% |           0      0.00%    100.00% |           0      0.00%    100.00% |           0      0.00%    100.00% |           0      0.00%    100.00% (Unspecified)
system.ruby.RequestType.ST.hit_latency_hist_seqr::total     18874927                       (Unspecified)
system.ruby.clk_domain.clock                      250                       # Clock period in ticks (Tick)
system.ruby.dir_cntrl0.power_state.pwrStateResidencyTicks::UNDEFINED   2147483750                       # Cumulative time (in ticks) in various power states (Tick)
system.ruby.dir_cntrl0.requestToDir.m_msg_count       294089                       # Number of messages passed the buffer (Count)
system.ruby.dir_cntrl0.requestToDir.m_buf_msgs     0.034236                       # Average number of messages in buffer ((Count/Tick))
system.ruby.dir_cntrl0.responseToDir.m_msg_count       109166                       # Number of messages passed the buffer (Count)
system.ruby.dir_cntrl0.responseToDir.m_buf_msgs     0.012709                       # Average number of messages in buffer ((Count/Tick))
system.ruby.dir_cntrl1.power_state.pwrStateResidencyTicks::UNDEFINED   2147483750                       # Cumulative time (in ticks) in various power states (Tick)
system.ruby.dir_cntrl1.requestToDir.m_msg_count       295325                       # Number of messages passed the buffer (Count)
system.ruby.dir_cntrl1.requestToDir.m_buf_msgs     0.034380                       # Average number of messages in buffer ((Count/Tick))
system.ruby.dir_cntrl1.responseToDir.m_msg_count       108727                       # Number of messages passed the buffer (Count)
system.ruby.dir_cntrl1.responseToDir.m_buf_msgs     0.012657                       # Average number of messages in buffer ((Count/Tick))
system.ruby.dir_cntrl10.power_state.pwrStateResidencyTicks::UNDEFINED   2147483750                       # Cumulative time (in ticks) in various power states (Tick)
system.ruby.dir_cntrl10.requestToDir.m_msg_count       295411                       # Number of messages passed the buffer (Count)
system.ruby.dir_cntrl10.requestToDir.m_buf_msgs     0.034390                       # Average number of messages in buffer ((Count/Tick))
system.ruby.dir_cntrl10.responseToDir.m_msg_count       108971                       # Number of messages passed the buffer (Count)
system.ruby.dir_cntrl10.responseToDir.m_buf_msgs     0.012686                       # Average number of messages in buffer ((Count/Tick))
system.ruby.dir_cntrl11.power_state.pwrStateResidencyTicks::UNDEFINED   2147483750                       # Cumulative time (in ticks) in various power states (Tick)
system.ruby.dir_cntrl11.requestToDir.m_msg_count       296240                       # Number of messages passed the buffer (Count)
system.ruby.dir_cntrl11.requestToDir.m_buf_msgs     0.034487                       # Average number of messages in buffer ((Count/Tick))
system.ruby.dir_cntrl11.responseToDir.m_msg_count       109001                       # Number of messages passed the buffer (Count)
system.ruby.dir_cntrl11.responseToDir.m_buf_msgs     0.012689                       # Average number of messages in buffer ((Count/Tick))
system.ruby.dir_cntrl12.power_state.pwrStateResidencyTicks::UNDEFINED   2147483750                       # Cumulative time (in ticks) in various power states (Tick)
system.ruby.dir_cntrl12.requestToDir.m_msg_count       295461                       # Number of messages passed the buffer (Count)
system.ruby.dir_cntrl12.requestToDir.m_buf_msgs     0.034396                       # Average number of messages in buffer ((Count/Tick))
system.ruby.dir_cntrl12.responseToDir.m_msg_count       109120                       # Number of messages passed the buffer (Count)
system.ruby.dir_cntrl12.responseToDir.m_buf_msgs     0.012703                       # Average number of messages in buffer ((Count/Tick))
system.ruby.dir_cntrl13.power_state.pwrStateResidencyTicks::UNDEFINED   2147483750                       # Cumulative time (in ticks) in various power states (Tick)
system.ruby.dir_cntrl13.requestToDir.m_msg_count       294996                       # Number of messages passed the buffer (Count)
system.ruby.dir_cntrl13.requestToDir.m_buf_msgs     0.034342                       # Average number of messages in buffer ((Count/Tick))
system.ruby.dir_cntrl13.responseToDir.m_msg_count       109313                       # Number of messages passed the buffer (Count)
system.ruby.dir_cntrl13.responseToDir.m_buf_msgs     0.012726                       # Average number of messages in buffer ((Count/Tick))
system.ruby.dir_cntrl14.power_state.pwrStateResidencyTicks::UNDEFINED   2147483750                       # Cumulative time (in ticks) in various power states (Tick)
system.ruby.dir_cntrl14.requestToDir.m_msg_count       294697                       # Number of messages passed the buffer (Count)
system.ruby.dir_cntrl14.requestToDir.m_buf_msgs     0.034307                       # Average number of messages in buffer ((Count/Tick))
system.ruby.dir_cntrl14.responseToDir.m_msg_count       108909                       # Number of messages passed the buffer (Count)
system.ruby.dir_cntrl14.responseToDir.m_buf_msgs     0.012679                       # Average number of messages in buffer ((Count/Tick))
system.ruby.dir_cntrl15.power_state.pwrStateResidencyTicks::UNDEFINED   2147483750                       # Cumulative time (in ticks) in various power states (Tick)
system.ruby.dir_cntrl15.requestToDir.m_msg_count       294873                       # Number of messages passed the buffer (Count)
system.ruby.dir_cntrl15.requestToDir.m_buf_msgs     0.034328                       # Average number of messages in buffer ((Count/Tick))
system.ruby.dir_cntrl15.responseToDir.m_msg_count       108953                       # Number of messages passed the buffer (Count)
system.ruby.dir_cntrl15.responseToDir.m_buf_msgs     0.012684                       # Average number of messages in buffer ((Count/Tick))
system.ruby.dir_cntrl16.power_state.pwrStateResidencyTicks::UNDEFINED   2147483750                       # Cumulative time (in ticks) in various power states (Tick)
system.ruby.dir_cntrl16.requestToDir.m_msg_count       294437                       # Number of messages passed the buffer (Count)
system.ruby.dir_cntrl16.requestToDir.m_buf_msgs     0.034277                       # Average number of messages in buffer ((Count/Tick))
system.ruby.dir_cntrl16.responseToDir.m_msg_count       109239                       # Number of messages passed the buffer (Count)
system.ruby.dir_cntrl16.responseToDir.m_buf_msgs     0.012717                       # Average number of messages in buffer ((Count/Tick))
system.ruby.dir_cntrl17.power_state.pwrStateResidencyTicks::UNDEFINED   2147483750                       # Cumulative time (in ticks) in various power states (Tick)
system.ruby.dir_cntrl17.requestToDir.m_msg_count       294991                       # Number of messages passed the buffer (Count)
system.ruby.dir_cntrl17.requestToDir.m_buf_msgs     0.034341                       # Average number of messages in buffer ((Count/Tick))
system.ruby.dir_cntrl17.responseToDir.m_msg_count       109013                       # Number of messages passed the buffer (Count)
system.ruby.dir_cntrl17.responseToDir.m_buf_msgs     0.012691                       # Average number of messages in buffer ((Count/Tick))
system.ruby.dir_cntrl18.power_state.pwrStateResidencyTicks::UNDEFINED   2147483750                       # Cumulative time (in ticks) in various power states (Tick)
system.ruby.dir_cntrl18.requestToDir.m_msg_count       294886                       # Number of messages passed the buffer (Count)
system.ruby.dir_cntrl18.requestToDir.m_buf_msgs     0.034329                       # Average number of messages in buffer ((Count/Tick))
system.ruby.dir_cntrl18.responseToDir.m_msg_count       109109                       # Number of messages passed the buffer (Count)
system.ruby.dir_cntrl18.responseToDir.m_buf_msgs     0.012702                       # Average number of messages in buffer ((Count/Tick))
system.ruby.dir_cntrl19.power_state.pwrStateResidencyTicks::UNDEFINED   2147483750                       # Cumulative time (in ticks) in various power states (Tick)
system.ruby.dir_cntrl19.requestToDir.m_msg_count       294790                       # Number of messages passed the buffer (Count)
system.ruby.dir_cntrl19.requestToDir.m_buf_msgs     0.034318                       # Average number of messages in buffer ((Count/Tick))
system.ruby.dir_cntrl19.responseToDir.m_msg_count       108903                       # Number of messages passed the buffer (Count)
system.ruby.dir_cntrl19.responseToDir.m_buf_msgs     0.012678                       # Average number of messages in buffer ((Count/Tick))
system.ruby.dir_cntrl2.power_state.pwrStateResidencyTicks::UNDEFINED   2147483750                       # Cumulative time (in ticks) in various power states (Tick)
system.ruby.dir_cntrl2.requestToDir.m_msg_count       295132                       # Number of messages passed the buffer (Count)
system.ruby.dir_cntrl2.requestToDir.m_buf_msgs     0.034358                       # Average number of messages in buffer ((Count/Tick))
system.ruby.dir_cntrl2.responseToDir.m_msg_count       109190                       # Number of messages passed the buffer (Count)
system.ruby.dir_cntrl2.responseToDir.m_buf_msgs     0.012711                       # Average number of messages in buffer ((Count/Tick))
system.ruby.dir_cntrl20.power_state.pwrStateResidencyTicks::UNDEFINED   2147483750                       # Cumulative time (in ticks) in various power states (Tick)
system.ruby.dir_cntrl20.requestToDir.m_msg_count       295215                       # Number of messages passed the buffer (Count)
system.ruby.dir_cntrl20.requestToDir.m_buf_msgs     0.034368                       # Average number of messages in buffer ((Count/Tick))
system.ruby.dir_cntrl20.responseToDir.m_msg_count       109109                       # Number of messages passed the buffer (Count)
system.ruby.dir_cntrl20.responseToDir.m_buf_msgs     0.012702                       # Average number of messages in buffer ((Count/Tick))
system.ruby.dir_cntrl21.power_state.pwrStateResidencyTicks::UNDEFINED   2147483750                       # Cumulative time (in ticks) in various power states (Tick)
system.ruby.dir_cntrl21.requestToDir.m_msg_count       294567                       # Number of messages passed the buffer (Count)
system.ruby.dir_cntrl21.requestToDir.m_buf_msgs     0.034292                       # Average number of messages in buffer ((Count/Tick))
system.ruby.dir_cntrl21.responseToDir.m_msg_count       109265                       # Number of messages passed the buffer (Count)
system.ruby.dir_cntrl21.responseToDir.m_buf_msgs     0.012720                       # Average number of messages in buffer ((Count/Tick))
system.ruby.dir_cntrl22.power_state.pwrStateResidencyTicks::UNDEFINED   2147483750                       # Cumulative time (in ticks) in various power states (Tick)
system.ruby.dir_cntrl22.requestToDir.m_msg_count       294751                       # Number of messages passed the buffer (Count)
system.ruby.dir_cntrl22.requestToDir.m_buf_msgs     0.034314                       # Average number of messages in buffer ((Count/Tick))
system.ruby.dir_cntrl22.responseToDir.m_msg_count       108771                       # Number of messages passed the buffer (Count)
system.ruby.dir_cntrl22.responseToDir.m_buf_msgs     0.012663                       # Average number of messages in buffer ((Count/Tick))
system.ruby.dir_cntrl23.power_state.pwrStateResidencyTicks::UNDEFINED   2147483750                       # Cumulative time (in ticks) in various power states (Tick)
system.ruby.dir_cntrl23.requestToDir.m_msg_count       295289                       # Number of messages passed the buffer (Count)
system.ruby.dir_cntrl23.requestToDir.m_buf_msgs     0.034376                       # Average number of messages in buffer ((Count/Tick))
system.ruby.dir_cntrl23.responseToDir.m_msg_count       109393                       # Number of messages passed the buffer (Count)
system.ruby.dir_cntrl23.responseToDir.m_buf_msgs     0.012735                       # Average number of messages in buffer ((Count/Tick))
system.ruby.dir_cntrl24.power_state.pwrStateResidencyTicks::UNDEFINED   2147483750                       # Cumulative time (in ticks) in various power states (Tick)
system.ruby.dir_cntrl24.requestToDir.m_msg_count       294740                       # Number of messages passed the buffer (Count)
system.ruby.dir_cntrl24.requestToDir.m_buf_msgs     0.034312                       # Average number of messages in buffer ((Count/Tick))
system.ruby.dir_cntrl24.responseToDir.m_msg_count       108980                       # Number of messages passed the buffer (Count)
system.ruby.dir_cntrl24.responseToDir.m_buf_msgs     0.012687                       # Average number of messages in buffer ((Count/Tick))
system.ruby.dir_cntrl25.power_state.pwrStateResidencyTicks::UNDEFINED   2147483750                       # Cumulative time (in ticks) in various power states (Tick)
system.ruby.dir_cntrl25.requestToDir.m_msg_count       294837                       # Number of messages passed the buffer (Count)
system.ruby.dir_cntrl25.requestToDir.m_buf_msgs     0.034324                       # Average number of messages in buffer ((Count/Tick))
system.ruby.dir_cntrl25.responseToDir.m_msg_count       109143                       # Number of messages passed the buffer (Count)
system.ruby.dir_cntrl25.responseToDir.m_buf_msgs     0.012706                       # Average number of messages in buffer ((Count/Tick))
system.ruby.dir_cntrl26.power_state.pwrStateResidencyTicks::UNDEFINED   2147483750                       # Cumulative time (in ticks) in various power states (Tick)
system.ruby.dir_cntrl26.requestToDir.m_msg_count       294980                       # Number of messages passed the buffer (Count)
system.ruby.dir_cntrl26.requestToDir.m_buf_msgs     0.034340                       # Average number of messages in buffer ((Count/Tick))
system.ruby.dir_cntrl26.responseToDir.m_msg_count       108966                       # Number of messages passed the buffer (Count)
system.ruby.dir_cntrl26.responseToDir.m_buf_msgs     0.012685                       # Average number of messages in buffer ((Count/Tick))
system.ruby.dir_cntrl27.power_state.pwrStateResidencyTicks::UNDEFINED   2147483750                       # Cumulative time (in ticks) in various power states (Tick)
system.ruby.dir_cntrl27.requestToDir.m_msg_count       294759                       # Number of messages passed the buffer (Count)
system.ruby.dir_cntrl27.requestToDir.m_buf_msgs     0.034314                       # Average number of messages in buffer ((Count/Tick))
system.ruby.dir_cntrl27.responseToDir.m_msg_count       108634                       # Number of messages passed the buffer (Count)
system.ruby.dir_cntrl27.responseToDir.m_buf_msgs     0.012647                       # Average number of messages in buffer ((Count/Tick))
system.ruby.dir_cntrl28.power_state.pwrStateResidencyTicks::UNDEFINED   2147483750                       # Cumulative time (in ticks) in various power states (Tick)
system.ruby.dir_cntrl28.requestToDir.m_msg_count       294636                       # Number of messages passed the buffer (Count)
system.ruby.dir_cntrl28.requestToDir.m_buf_msgs     0.034300                       # Average number of messages in buffer ((Count/Tick))
system.ruby.dir_cntrl28.responseToDir.m_msg_count       109078                       # Number of messages passed the buffer (Count)
system.ruby.dir_cntrl28.responseToDir.m_buf_msgs     0.012698                       # Average number of messages in buffer ((Count/Tick))
system.ruby.dir_cntrl29.power_state.pwrStateResidencyTicks::UNDEFINED   2147483750                       # Cumulative time (in ticks) in various power states (Tick)
system.ruby.dir_cntrl29.requestToDir.m_msg_count       294562                       # Number of messages passed the buffer (Count)
system.ruby.dir_cntrl29.requestToDir.m_buf_msgs     0.034292                       # Average number of messages in buffer ((Count/Tick))
system.ruby.dir_cntrl29.responseToDir.m_msg_count       108806                       # Number of messages passed the buffer (Count)
system.ruby.dir_cntrl29.responseToDir.m_buf_msgs     0.012667                       # Average number of messages in buffer ((Count/Tick))
system.ruby.dir_cntrl3.power_state.pwrStateResidencyTicks::UNDEFINED   2147483750                       # Cumulative time (in ticks) in various power states (Tick)
system.ruby.dir_cntrl3.requestToDir.m_msg_count       295529                       # Number of messages passed the buffer (Count)
system.ruby.dir_cntrl3.requestToDir.m_buf_msgs     0.034404                       # Average number of messages in buffer ((Count/Tick))
system.ruby.dir_cntrl3.responseToDir.m_msg_count       109632                       # Number of messages passed the buffer (Count)
system.ruby.dir_cntrl3.responseToDir.m_buf_msgs     0.012763                       # Average number of messages in buffer ((Count/Tick))
system.ruby.dir_cntrl30.power_state.pwrStateResidencyTicks::UNDEFINED   2147483750                       # Cumulative time (in ticks) in various power states (Tick)
system.ruby.dir_cntrl30.requestToDir.m_msg_count       295631                       # Number of messages passed the buffer (Count)
system.ruby.dir_cntrl30.requestToDir.m_buf_msgs     0.034416                       # Average number of messages in buffer ((Count/Tick))
system.ruby.dir_cntrl30.responseToDir.m_msg_count       109068                       # Number of messages passed the buffer (Count)
system.ruby.dir_cntrl30.responseToDir.m_buf_msgs     0.012697                       # Average number of messages in buffer ((Count/Tick))
system.ruby.dir_cntrl31.power_state.pwrStateResidencyTicks::UNDEFINED   2147483750                       # Cumulative time (in ticks) in various power states (Tick)
system.ruby.dir_cntrl31.requestToDir.m_msg_count       294557                       # Number of messages passed the buffer (Count)
system.ruby.dir_cntrl31.requestToDir.m_buf_msgs     0.034291                       # Average number of messages in buffer ((Count/Tick))
system.ruby.dir_cntrl31.responseToDir.m_msg_count       109043                       # Number of messages passed the buffer (Count)
system.ruby.dir_cntrl31.responseToDir.m_buf_msgs     0.012694                       # Average number of messages in buffer ((Count/Tick))
system.ruby.dir_cntrl32.power_state.pwrStateResidencyTicks::UNDEFINED   2147483750                       # Cumulative time (in ticks) in various power states (Tick)
system.ruby.dir_cntrl32.requestToDir.m_msg_count       294276                       # Number of messages passed the buffer (Count)
system.ruby.dir_cntrl32.requestToDir.m_buf_msgs     0.034258                       # Average number of messages in buffer ((Count/Tick))
system.ruby.dir_cntrl32.responseToDir.m_msg_count       109415                       # Number of messages passed the buffer (Count)
system.ruby.dir_cntrl32.responseToDir.m_buf_msgs     0.012738                       # Average number of messages in buffer ((Count/Tick))
system.ruby.dir_cntrl33.power_state.pwrStateResidencyTicks::UNDEFINED   2147483750                       # Cumulative time (in ticks) in various power states (Tick)
system.ruby.dir_cntrl33.requestToDir.m_msg_count       294823                       # Number of messages passed the buffer (Count)
system.ruby.dir_cntrl33.requestToDir.m_buf_msgs     0.034322                       # Average number of messages in buffer ((Count/Tick))
system.ruby.dir_cntrl33.responseToDir.m_msg_count       109267                       # Number of messages passed the buffer (Count)
system.ruby.dir_cntrl33.responseToDir.m_buf_msgs     0.012720                       # Average number of messages in buffer ((Count/Tick))
system.ruby.dir_cntrl34.power_state.pwrStateResidencyTicks::UNDEFINED   2147483750                       # Cumulative time (in ticks) in various power states (Tick)
system.ruby.dir_cntrl34.requestToDir.m_msg_count       295073                       # Number of messages passed the buffer (Count)
system.ruby.dir_cntrl34.requestToDir.m_buf_msgs     0.034351                       # Average number of messages in buffer ((Count/Tick))
system.ruby.dir_cntrl34.responseToDir.m_msg_count       108646                       # Number of messages passed the buffer (Count)
system.ruby.dir_cntrl34.responseToDir.m_buf_msgs     0.012648                       # Average number of messages in buffer ((Count/Tick))
system.ruby.dir_cntrl35.power_state.pwrStateResidencyTicks::UNDEFINED   2147483750                       # Cumulative time (in ticks) in various power states (Tick)
system.ruby.dir_cntrl35.requestToDir.m_msg_count       295132                       # Number of messages passed the buffer (Count)
system.ruby.dir_cntrl35.requestToDir.m_buf_msgs     0.034358                       # Average number of messages in buffer ((Count/Tick))
system.ruby.dir_cntrl35.responseToDir.m_msg_count       108792                       # Number of messages passed the buffer (Count)
system.ruby.dir_cntrl35.responseToDir.m_buf_msgs     0.012665                       # Average number of messages in buffer ((Count/Tick))
system.ruby.dir_cntrl36.power_state.pwrStateResidencyTicks::UNDEFINED   2147483750                       # Cumulative time (in ticks) in various power states (Tick)
system.ruby.dir_cntrl36.requestToDir.m_msg_count       295909                       # Number of messages passed the buffer (Count)
system.ruby.dir_cntrl36.requestToDir.m_buf_msgs     0.034448                       # Average number of messages in buffer ((Count/Tick))
system.ruby.dir_cntrl36.responseToDir.m_msg_count       109016                       # Number of messages passed the buffer (Count)
system.ruby.dir_cntrl36.responseToDir.m_buf_msgs     0.012691                       # Average number of messages in buffer ((Count/Tick))
system.ruby.dir_cntrl37.power_state.pwrStateResidencyTicks::UNDEFINED   2147483750                       # Cumulative time (in ticks) in various power states (Tick)
system.ruby.dir_cntrl37.requestToDir.m_msg_count       296214                       # Number of messages passed the buffer (Count)
system.ruby.dir_cntrl37.requestToDir.m_buf_msgs     0.034484                       # Average number of messages in buffer ((Count/Tick))
system.ruby.dir_cntrl37.responseToDir.m_msg_count       109419                       # Number of messages passed the buffer (Count)
system.ruby.dir_cntrl37.responseToDir.m_buf_msgs     0.012738                       # Average number of messages in buffer ((Count/Tick))
system.ruby.dir_cntrl38.power_state.pwrStateResidencyTicks::UNDEFINED   2147483750                       # Cumulative time (in ticks) in various power states (Tick)
system.ruby.dir_cntrl38.requestToDir.m_msg_count       295323                       # Number of messages passed the buffer (Count)
system.ruby.dir_cntrl38.requestToDir.m_buf_msgs     0.034380                       # Average number of messages in buffer ((Count/Tick))
system.ruby.dir_cntrl38.responseToDir.m_msg_count       109214                       # Number of messages passed the buffer (Count)
system.ruby.dir_cntrl38.responseToDir.m_buf_msgs     0.012714                       # Average number of messages in buffer ((Count/Tick))
system.ruby.dir_cntrl39.power_state.pwrStateResidencyTicks::UNDEFINED   2147483750                       # Cumulative time (in ticks) in various power states (Tick)
system.ruby.dir_cntrl39.requestToDir.m_msg_count       295051                       # Number of messages passed the buffer (Count)
system.ruby.dir_cntrl39.requestToDir.m_buf_msgs     0.034348                       # Average number of messages in buffer ((Count/Tick))
system.ruby.dir_cntrl39.responseToDir.m_msg_count       109168                       # Number of messages passed the buffer (Count)
system.ruby.dir_cntrl39.responseToDir.m_buf_msgs     0.012709                       # Average number of messages in buffer ((Count/Tick))
system.ruby.dir_cntrl4.power_state.pwrStateResidencyTicks::UNDEFINED   2147483750                       # Cumulative time (in ticks) in various power states (Tick)
system.ruby.dir_cntrl4.requestToDir.m_msg_count       294895                       # Number of messages passed the buffer (Count)
system.ruby.dir_cntrl4.requestToDir.m_buf_msgs     0.034330                       # Average number of messages in buffer ((Count/Tick))
system.ruby.dir_cntrl4.responseToDir.m_msg_count       109479                       # Number of messages passed the buffer (Count)
system.ruby.dir_cntrl4.responseToDir.m_buf_msgs     0.012745                       # Average number of messages in buffer ((Count/Tick))
system.ruby.dir_cntrl40.power_state.pwrStateResidencyTicks::UNDEFINED   2147483750                       # Cumulative time (in ticks) in various power states (Tick)
system.ruby.dir_cntrl40.requestToDir.m_msg_count       295562                       # Number of messages passed the buffer (Count)
system.ruby.dir_cntrl40.requestToDir.m_buf_msgs     0.034408                       # Average number of messages in buffer ((Count/Tick))
system.ruby.dir_cntrl40.responseToDir.m_msg_count       109468                       # Number of messages passed the buffer (Count)
system.ruby.dir_cntrl40.responseToDir.m_buf_msgs     0.012744                       # Average number of messages in buffer ((Count/Tick))
system.ruby.dir_cntrl41.power_state.pwrStateResidencyTicks::UNDEFINED   2147483750                       # Cumulative time (in ticks) in various power states (Tick)
system.ruby.dir_cntrl41.requestToDir.m_msg_count       294005                       # Number of messages passed the buffer (Count)
system.ruby.dir_cntrl41.requestToDir.m_buf_msgs     0.034227                       # Average number of messages in buffer ((Count/Tick))
system.ruby.dir_cntrl41.responseToDir.m_msg_count       108917                       # Number of messages passed the buffer (Count)
system.ruby.dir_cntrl41.responseToDir.m_buf_msgs     0.012680                       # Average number of messages in buffer ((Count/Tick))
system.ruby.dir_cntrl42.power_state.pwrStateResidencyTicks::UNDEFINED   2147483750                       # Cumulative time (in ticks) in various power states (Tick)
system.ruby.dir_cntrl42.requestToDir.m_msg_count       295219                       # Number of messages passed the buffer (Count)
system.ruby.dir_cntrl42.requestToDir.m_buf_msgs     0.034368                       # Average number of messages in buffer ((Count/Tick))
system.ruby.dir_cntrl42.responseToDir.m_msg_count       109335                       # Number of messages passed the buffer (Count)
system.ruby.dir_cntrl42.responseToDir.m_buf_msgs     0.012728                       # Average number of messages in buffer ((Count/Tick))
system.ruby.dir_cntrl43.power_state.pwrStateResidencyTicks::UNDEFINED   2147483750                       # Cumulative time (in ticks) in various power states (Tick)
system.ruby.dir_cntrl43.requestToDir.m_msg_count       294468                       # Number of messages passed the buffer (Count)
system.ruby.dir_cntrl43.requestToDir.m_buf_msgs     0.034281                       # Average number of messages in buffer ((Count/Tick))
system.ruby.dir_cntrl43.responseToDir.m_msg_count       108959                       # Number of messages passed the buffer (Count)
system.ruby.dir_cntrl43.responseToDir.m_buf_msgs     0.012684                       # Average number of messages in buffer ((Count/Tick))
system.ruby.dir_cntrl44.power_state.pwrStateResidencyTicks::UNDEFINED   2147483750                       # Cumulative time (in ticks) in various power states (Tick)
system.ruby.dir_cntrl44.requestToDir.m_msg_count       295326                       # Number of messages passed the buffer (Count)
system.ruby.dir_cntrl44.requestToDir.m_buf_msgs     0.034380                       # Average number of messages in buffer ((Count/Tick))
system.ruby.dir_cntrl44.responseToDir.m_msg_count       109556                       # Number of messages passed the buffer (Count)
system.ruby.dir_cntrl44.responseToDir.m_buf_msgs     0.012754                       # Average number of messages in buffer ((Count/Tick))
system.ruby.dir_cntrl45.power_state.pwrStateResidencyTicks::UNDEFINED   2147483750                       # Cumulative time (in ticks) in various power states (Tick)
system.ruby.dir_cntrl45.requestToDir.m_msg_count       295465                       # Number of messages passed the buffer (Count)
system.ruby.dir_cntrl45.requestToDir.m_buf_msgs     0.034397                       # Average number of messages in buffer ((Count/Tick))
system.ruby.dir_cntrl45.responseToDir.m_msg_count       109474                       # Number of messages passed the buffer (Count)
system.ruby.dir_cntrl45.responseToDir.m_buf_msgs     0.012744                       # Average number of messages in buffer ((Count/Tick))
system.ruby.dir_cntrl46.power_state.pwrStateResidencyTicks::UNDEFINED   2147483750                       # Cumulative time (in ticks) in various power states (Tick)
system.ruby.dir_cntrl46.requestToDir.m_msg_count       295053                       # Number of messages passed the buffer (Count)
system.ruby.dir_cntrl46.requestToDir.m_buf_msgs     0.034349                       # Average number of messages in buffer ((Count/Tick))
system.ruby.dir_cntrl46.responseToDir.m_msg_count       109620                       # Number of messages passed the buffer (Count)
system.ruby.dir_cntrl46.responseToDir.m_buf_msgs     0.012761                       # Average number of messages in buffer ((Count/Tick))
system.ruby.dir_cntrl47.power_state.pwrStateResidencyTicks::UNDEFINED   2147483750                       # Cumulative time (in ticks) in various power states (Tick)
system.ruby.dir_cntrl47.requestToDir.m_msg_count       294652                       # Number of messages passed the buffer (Count)
system.ruby.dir_cntrl47.requestToDir.m_buf_msgs     0.034302                       # Average number of messages in buffer ((Count/Tick))
system.ruby.dir_cntrl47.responseToDir.m_msg_count       109096                       # Number of messages passed the buffer (Count)
system.ruby.dir_cntrl47.responseToDir.m_buf_msgs     0.012700                       # Average number of messages in buffer ((Count/Tick))
system.ruby.dir_cntrl48.power_state.pwrStateResidencyTicks::UNDEFINED   2147483750                       # Cumulative time (in ticks) in various power states (Tick)
system.ruby.dir_cntrl48.requestToDir.m_msg_count       293707                       # Number of messages passed the buffer (Count)
system.ruby.dir_cntrl48.requestToDir.m_buf_msgs     0.034192                       # Average number of messages in buffer ((Count/Tick))
system.ruby.dir_cntrl48.responseToDir.m_msg_count       109232                       # Number of messages passed the buffer (Count)
system.ruby.dir_cntrl48.responseToDir.m_buf_msgs     0.012716                       # Average number of messages in buffer ((Count/Tick))
system.ruby.dir_cntrl49.power_state.pwrStateResidencyTicks::UNDEFINED   2147483750                       # Cumulative time (in ticks) in various power states (Tick)
system.ruby.dir_cntrl49.requestToDir.m_msg_count       295714                       # Number of messages passed the buffer (Count)
system.ruby.dir_cntrl49.requestToDir.m_buf_msgs     0.034426                       # Average number of messages in buffer ((Count/Tick))
system.ruby.dir_cntrl49.responseToDir.m_msg_count       109135                       # Number of messages passed the buffer (Count)
system.ruby.dir_cntrl49.responseToDir.m_buf_msgs     0.012705                       # Average number of messages in buffer ((Count/Tick))
system.ruby.dir_cntrl5.power_state.pwrStateResidencyTicks::UNDEFINED   2147483750                       # Cumulative time (in ticks) in various power states (Tick)
system.ruby.dir_cntrl5.requestToDir.m_msg_count       294299                       # Number of messages passed the buffer (Count)
system.ruby.dir_cntrl5.requestToDir.m_buf_msgs     0.034261                       # Average number of messages in buffer ((Count/Tick))
system.ruby.dir_cntrl5.responseToDir.m_msg_count       108862                       # Number of messages passed the buffer (Count)
system.ruby.dir_cntrl5.responseToDir.m_buf_msgs     0.012673                       # Average number of messages in buffer ((Count/Tick))
system.ruby.dir_cntrl50.power_state.pwrStateResidencyTicks::UNDEFINED   2147483750                       # Cumulative time (in ticks) in various power states (Tick)
system.ruby.dir_cntrl50.requestToDir.m_msg_count       294410                       # Number of messages passed the buffer (Count)
system.ruby.dir_cntrl50.requestToDir.m_buf_msgs     0.034274                       # Average number of messages in buffer ((Count/Tick))
system.ruby.dir_cntrl50.responseToDir.m_msg_count       109052                       # Number of messages passed the buffer (Count)
system.ruby.dir_cntrl50.responseToDir.m_buf_msgs     0.012695                       # Average number of messages in buffer ((Count/Tick))
system.ruby.dir_cntrl51.power_state.pwrStateResidencyTicks::UNDEFINED   2147483750                       # Cumulative time (in ticks) in various power states (Tick)
system.ruby.dir_cntrl51.requestToDir.m_msg_count       295274                       # Number of messages passed the buffer (Count)
system.ruby.dir_cntrl51.requestToDir.m_buf_msgs     0.034374                       # Average number of messages in buffer ((Count/Tick))
system.ruby.dir_cntrl51.responseToDir.m_msg_count       109190                       # Number of messages passed the buffer (Count)
system.ruby.dir_cntrl51.responseToDir.m_buf_msgs     0.012711                       # Average number of messages in buffer ((Count/Tick))
system.ruby.dir_cntrl52.power_state.pwrStateResidencyTicks::UNDEFINED   2147483750                       # Cumulative time (in ticks) in various power states (Tick)
system.ruby.dir_cntrl52.requestToDir.m_msg_count       294812                       # Number of messages passed the buffer (Count)
system.ruby.dir_cntrl52.requestToDir.m_buf_msgs     0.034321                       # Average number of messages in buffer ((Count/Tick))
system.ruby.dir_cntrl52.responseToDir.m_msg_count       109129                       # Number of messages passed the buffer (Count)
system.ruby.dir_cntrl52.responseToDir.m_buf_msgs     0.012704                       # Average number of messages in buffer ((Count/Tick))
system.ruby.dir_cntrl53.power_state.pwrStateResidencyTicks::UNDEFINED   2147483750                       # Cumulative time (in ticks) in various power states (Tick)
system.ruby.dir_cntrl53.requestToDir.m_msg_count       295172                       # Number of messages passed the buffer (Count)
system.ruby.dir_cntrl53.requestToDir.m_buf_msgs     0.034363                       # Average number of messages in buffer ((Count/Tick))
system.ruby.dir_cntrl53.responseToDir.m_msg_count       108860                       # Number of messages passed the buffer (Count)
system.ruby.dir_cntrl53.responseToDir.m_buf_msgs     0.012673                       # Average number of messages in buffer ((Count/Tick))
system.ruby.dir_cntrl54.power_state.pwrStateResidencyTicks::UNDEFINED   2147483750                       # Cumulative time (in ticks) in various power states (Tick)
system.ruby.dir_cntrl54.requestToDir.m_msg_count       293895                       # Number of messages passed the buffer (Count)
system.ruby.dir_cntrl54.requestToDir.m_buf_msgs     0.034214                       # Average number of messages in buffer ((Count/Tick))
system.ruby.dir_cntrl54.responseToDir.m_msg_count       109000                       # Number of messages passed the buffer (Count)
system.ruby.dir_cntrl54.responseToDir.m_buf_msgs     0.012689                       # Average number of messages in buffer ((Count/Tick))
system.ruby.dir_cntrl55.power_state.pwrStateResidencyTicks::UNDEFINED   2147483750                       # Cumulative time (in ticks) in various power states (Tick)
system.ruby.dir_cntrl55.requestToDir.m_msg_count       294885                       # Number of messages passed the buffer (Count)
system.ruby.dir_cntrl55.requestToDir.m_buf_msgs     0.034329                       # Average number of messages in buffer ((Count/Tick))
system.ruby.dir_cntrl55.responseToDir.m_msg_count       109494                       # Number of messages passed the buffer (Count)
system.ruby.dir_cntrl55.responseToDir.m_buf_msgs     0.012747                       # Average number of messages in buffer ((Count/Tick))
system.ruby.dir_cntrl56.power_state.pwrStateResidencyTicks::UNDEFINED   2147483750                       # Cumulative time (in ticks) in various power states (Tick)
system.ruby.dir_cntrl56.requestToDir.m_msg_count       294499                       # Number of messages passed the buffer (Count)
system.ruby.dir_cntrl56.requestToDir.m_buf_msgs     0.034284                       # Average number of messages in buffer ((Count/Tick))
system.ruby.dir_cntrl56.responseToDir.m_msg_count       109193                       # Number of messages passed the buffer (Count)
system.ruby.dir_cntrl56.responseToDir.m_buf_msgs     0.012712                       # Average number of messages in buffer ((Count/Tick))
system.ruby.dir_cntrl57.power_state.pwrStateResidencyTicks::UNDEFINED   2147483750                       # Cumulative time (in ticks) in various power states (Tick)
system.ruby.dir_cntrl57.requestToDir.m_msg_count       294343                       # Number of messages passed the buffer (Count)
system.ruby.dir_cntrl57.requestToDir.m_buf_msgs     0.034266                       # Average number of messages in buffer ((Count/Tick))
system.ruby.dir_cntrl57.responseToDir.m_msg_count       109695                       # Number of messages passed the buffer (Count)
system.ruby.dir_cntrl57.responseToDir.m_buf_msgs     0.012770                       # Average number of messages in buffer ((Count/Tick))
system.ruby.dir_cntrl58.power_state.pwrStateResidencyTicks::UNDEFINED   2147483750                       # Cumulative time (in ticks) in various power states (Tick)
system.ruby.dir_cntrl58.requestToDir.m_msg_count       294893                       # Number of messages passed the buffer (Count)
system.ruby.dir_cntrl58.requestToDir.m_buf_msgs     0.034330                       # Average number of messages in buffer ((Count/Tick))
system.ruby.dir_cntrl58.responseToDir.m_msg_count       109492                       # Number of messages passed the buffer (Count)
system.ruby.dir_cntrl58.responseToDir.m_buf_msgs     0.012747                       # Average number of messages in buffer ((Count/Tick))
system.ruby.dir_cntrl59.power_state.pwrStateResidencyTicks::UNDEFINED   2147483750                       # Cumulative time (in ticks) in various power states (Tick)
system.ruby.dir_cntrl59.requestToDir.m_msg_count       294773                       # Number of messages passed the buffer (Count)
system.ruby.dir_cntrl59.requestToDir.m_buf_msgs     0.034316                       # Average number of messages in buffer ((Count/Tick))
[...]
system.ruby.network.sankey.vcvn13.vcvn5             0                       (Unspecified)
system.ruby.network.sankey.vcvn13.vcvn6             0                       (Unspecified)
system.ruby.network.sankey.vcvn13.vcvn7             0                       (Unspecified)
system.ruby.network.sankey.vcvn13.vcvn8             0                       (Unspecified)
system.ruby.network.sankey.vcvn13.vcvn9             0                       (Unspecified)
system.ruby.network.sankey.vcvn14.vcvn0             0                       (Unspecified)
system.ruby.network.sankey.vcvn14.vcvn1             0                       (Unspecified)
system.ruby.network.sankey.vcvn14.vcvn10            0                       (Unspecified)
system.ruby.network.sankey.vcvn14.vcvn11            0                       (Unspecified)
system.ruby.network.sankey.vcvn14.vcvn12      3129165                       (Unspecified)
system.ruby.network.sankey.vcvn14.vcvn13       821035                       (Unspecified)
system.ruby.network.sankey.vcvn14.vcvn14       118780                       (Unspecified)
system.ruby.network.sankey.vcvn14.vcvn15        10215                       (Unspecified)
system.ruby.network.sankey.vcvn14.vcvn16       192872                       (Unspecified)
system.ruby.network.sankey.vcvn14.vcvn17       513095                       (Unspecified)
system.ruby.network.sankey.vcvn14.vcvn2             0                       (Unspecified)
system.ruby.network.sankey.vcvn14.vcvn3             0                       (Unspecified)
system.ruby.network.sankey.vcvn14.vcvn4             0                       (Unspecified)
system.ruby.network.sankey.vcvn14.vcvn5             0                       (Unspecified)
system.ruby.network.sankey.vcvn14.vcvn6             0                       (Unspecified)
system.ruby.network.sankey.vcvn14.vcvn7             0                       (Unspecified)
system.ruby.network.sankey.vcvn14.vcvn8             0                       (Unspecified)
system.ruby.network.sankey.vcvn14.vcvn9             0                       (Unspecified)
system.ruby.network.sankey.vcvn15.vcvn0             0                       (Unspecified)
system.ruby.network.sankey.vcvn15.vcvn1             0                       (Unspecified)
system.ruby.network.sankey.vcvn15.vcvn10            0                       (Unspecified)
system.ruby.network.sankey.vcvn15.vcvn11            0                       (Unspecified)
system.ruby.network.sankey.vcvn15.vcvn12      2135760                       (Unspecified)
system.ruby.network.sankey.vcvn15.vcvn13       557788                       (Unspecified)
system.ruby.network.sankey.vcvn15.vcvn14        80100                       (Unspecified)
system.ruby.network.sankey.vcvn15.vcvn15         6575                       (Unspecified)
system.ruby.network.sankey.vcvn15.vcvn16       158915                       (Unspecified)
system.ruby.network.sankey.vcvn15.vcvn17       349705                       (Unspecified)
system.ruby.network.sankey.vcvn15.vcvn2             0                       (Unspecified)
system.ruby.network.sankey.vcvn15.vcvn3             0                       (Unspecified)
system.ruby.network.sankey.vcvn15.vcvn4             0                       (Unspecified)
system.ruby.network.sankey.vcvn15.vcvn5             0                       (Unspecified)
system.ruby.network.sankey.vcvn15.vcvn6             0                       (Unspecified)
system.ruby.network.sankey.vcvn15.vcvn7             0                       (Unspecified)
system.ruby.network.sankey.vcvn15.vcvn8             0                       (Unspecified)
system.ruby.network.sankey.vcvn15.vcvn9             0                       (Unspecified)
system.ruby.network.sankey.vcvn16.vcvn0             0                       (Unspecified)
system.ruby.network.sankey.vcvn16.vcvn1             0                       (Unspecified)
system.ruby.network.sankey.vcvn16.vcvn10            0                       (Unspecified)
system.ruby.network.sankey.vcvn16.vcvn11            0                       (Unspecified)
system.ruby.network.sankey.vcvn16.vcvn12            0                       (Unspecified)
system.ruby.network.sankey.vcvn16.vcvn13            0                       (Unspecified)
system.ruby.network.sankey.vcvn16.vcvn14            0                       (Unspecified)
system.ruby.network.sankey.vcvn16.vcvn15            0                       (Unspecified)
system.ruby.network.sankey.vcvn16.vcvn16      2555289                       (Unspecified)
system.ruby.network.sankey.vcvn16.vcvn17            0                       (Unspecified)
system.ruby.network.sankey.vcvn16.vcvn2             0                       (Unspecified)
system.ruby.network.sankey.vcvn16.vcvn3             0                       (Unspecified)
system.ruby.network.sankey.vcvn16.vcvn4             0                       (Unspecified)
system.ruby.network.sankey.vcvn16.vcvn5             0                       (Unspecified)
system.ruby.network.sankey.vcvn16.vcvn6             0                       (Unspecified)
system.ruby.network.sankey.vcvn16.vcvn7             0                       (Unspecified)
system.ruby.network.sankey.vcvn16.vcvn8             0                       (Unspecified)
system.ruby.network.sankey.vcvn16.vcvn9             0                       (Unspecified)
system.ruby.network.sankey.vcvn17.vcvn0             0                       (Unspecified)
system.ruby.network.sankey.vcvn17.vcvn1             0                       (Unspecified)
system.ruby.network.sankey.vcvn17.vcvn10            0                       (Unspecified)
system.ruby.network.sankey.vcvn17.vcvn11            0                       (Unspecified)
system.ruby.network.sankey.vcvn17.vcvn12            0                       (Unspecified)
system.ruby.network.sankey.vcvn17.vcvn13            0                       (Unspecified)
system.ruby.network.sankey.vcvn17.vcvn14            0                       (Unspecified)
system.ruby.network.sankey.vcvn17.vcvn15            0                       (Unspecified)
system.ruby.network.sankey.vcvn17.vcvn16            0                       (Unspecified)
system.ruby.network.sankey.vcvn17.vcvn17       192805                       (Unspecified)
system.ruby.network.sankey.vcvn17.vcvn2             0                       (Unspecified)
system.ruby.network.sankey.vcvn17.vcvn3             0                       (Unspecified)
system.ruby.network.sankey.vcvn17.vcvn4             0                       (Unspecified)
system.ruby.network.sankey.vcvn17.vcvn5             0                       (Unspecified)
system.ruby.network.sankey.vcvn17.vcvn6             0                       (Unspecified)
system.ruby.network.sankey.vcvn17.vcvn7             0                       (Unspecified)
system.ruby.network.sankey.vcvn17.vcvn8             0                       (Unspecified)
system.ruby.network.sankey.vcvn17.vcvn9             0                       (Unspecified)
system.ruby.network.sankey.vcvn2.vcvn0        3105183                       (Unspecified)
system.ruby.network.sankey.vcvn2.vcvn1         482793                       (Unspecified)
system.ruby.network.sankey.vcvn2.vcvn10             0                       (Unspecified)
system.ruby.network.sankey.vcvn2.vcvn11             0                       (Unspecified)
system.ruby.network.sankey.vcvn2.vcvn12             0                       (Unspecified)
system.ruby.network.sankey.vcvn2.vcvn13             0                       (Unspecified)
system.ruby.network.sankey.vcvn2.vcvn14             0                       (Unspecified)
system.ruby.network.sankey.vcvn2.vcvn15             0                       (Unspecified)
system.ruby.network.sankey.vcvn2.vcvn16             0                       (Unspecified)
system.ruby.network.sankey.vcvn2.vcvn17             0                       (Unspecified)
system.ruby.network.sankey.vcvn2.vcvn2          38551                       (Unspecified)
system.ruby.network.sankey.vcvn2.vcvn3           1834                       (Unspecified)
system.ruby.network.sankey.vcvn2.vcvn4          29545                       (Unspecified)
system.ruby.network.sankey.vcvn2.vcvn5          71620                       (Unspecified)
system.ruby.network.sankey.vcvn2.vcvn6              0                       (Unspecified)
system.ruby.network.sankey.vcvn2.vcvn7              0                       (Unspecified)
system.ruby.network.sankey.vcvn2.vcvn8              0                       (Unspecified)
system.ruby.network.sankey.vcvn2.vcvn9              0                       (Unspecified)
system.ruby.network.sankey.vcvn3.vcvn0        3106065                       (Unspecified)
system.ruby.network.sankey.vcvn3.vcvn1         480676                       (Unspecified)
system.ruby.network.sankey.vcvn3.vcvn10             0                       (Unspecified)
system.ruby.network.sankey.vcvn3.vcvn11             0                       (Unspecified)
system.ruby.network.sankey.vcvn3.vcvn12             0                       (Unspecified)
system.ruby.network.sankey.vcvn3.vcvn13             0                       (Unspecified)
system.ruby.network.sankey.vcvn3.vcvn14             0                       (Unspecified)
system.ruby.network.sankey.vcvn3.vcvn15             0                       (Unspecified)
system.ruby.network.sankey.vcvn3.vcvn16             0                       (Unspecified)
system.ruby.network.sankey.vcvn3.vcvn17             0                       (Unspecified)
system.ruby.network.sankey.vcvn3.vcvn2          38732                       (Unspecified)
system.ruby.network.sankey.vcvn3.vcvn3           1895                       (Unspecified)
system.ruby.network.sankey.vcvn3.vcvn4          29552                       (Unspecified)
system.ruby.network.sankey.vcvn3.vcvn5          72190                       (Unspecified)
system.ruby.network.sankey.vcvn3.vcvn6              0                       (Unspecified)
system.ruby.network.sankey.vcvn3.vcvn7              0                       (Unspecified)
system.ruby.network.sankey.vcvn3.vcvn8              0                       (Unspecified)
system.ruby.network.sankey.vcvn3.vcvn9              0                       (Unspecified)
system.ruby.network.sankey.vcvn4.vcvn0              0                       (Unspecified)
system.ruby.network.sankey.vcvn4.vcvn1              0                       (Unspecified)
system.ruby.network.sankey.vcvn4.vcvn10             0                       (Unspecified)
system.ruby.network.sankey.vcvn4.vcvn11             0                       (Unspecified)
system.ruby.network.sankey.vcvn4.vcvn12             0                       (Unspecified)
system.ruby.network.sankey.vcvn4.vcvn13             0                       (Unspecified)
system.ruby.network.sankey.vcvn4.vcvn14             0                       (Unspecified)
system.ruby.network.sankey.vcvn4.vcvn15             0                       (Unspecified)
system.ruby.network.sankey.vcvn4.vcvn16             0                       (Unspecified)
system.ruby.network.sankey.vcvn4.vcvn17             0                       (Unspecified)
system.ruby.network.sankey.vcvn4.vcvn2              0                       (Unspecified)
system.ruby.network.sankey.vcvn4.vcvn3              0                       (Unspecified)
system.ruby.network.sankey.vcvn4.vcvn4         807460                       (Unspecified)
system.ruby.network.sankey.vcvn4.vcvn5              0                       (Unspecified)
system.ruby.network.sankey.vcvn4.vcvn6              0                       (Unspecified)
system.ruby.network.sankey.vcvn4.vcvn7              0                       (Unspecified)
system.ruby.network.sankey.vcvn4.vcvn8              0                       (Unspecified)
system.ruby.network.sankey.vcvn4.vcvn9              0                       (Unspecified)
system.ruby.network.sankey.vcvn5.vcvn0              0                       (Unspecified)
system.ruby.network.sankey.vcvn5.vcvn1              0                       (Unspecified)
system.ruby.network.sankey.vcvn5.vcvn10             0                       (Unspecified)
system.ruby.network.sankey.vcvn5.vcvn11             0                       (Unspecified)
system.ruby.network.sankey.vcvn5.vcvn12             0                       (Unspecified)
system.ruby.network.sankey.vcvn5.vcvn13             0                       (Unspecified)
system.ruby.network.sankey.vcvn5.vcvn14             0                       (Unspecified)
system.ruby.network.sankey.vcvn5.vcvn15             0                       (Unspecified)
system.ruby.network.sankey.vcvn5.vcvn16             0                       (Unspecified)
system.ruby.network.sankey.vcvn5.vcvn17             0                       (Unspecified)
system.ruby.network.sankey.vcvn5.vcvn2              0                       (Unspecified)
system.ruby.network.sankey.vcvn5.vcvn3              0                       (Unspecified)
system.ruby.network.sankey.vcvn5.vcvn4              0                       (Unspecified)
system.ruby.network.sankey.vcvn5.vcvn5        3151359                       (Unspecified)
system.ruby.network.sankey.vcvn5.vcvn6              0                       (Unspecified)
system.ruby.network.sankey.vcvn5.vcvn7              0                       (Unspecified)
system.ruby.network.sankey.vcvn5.vcvn8              0                       (Unspecified)
system.ruby.network.sankey.vcvn5.vcvn9              0                       (Unspecified)
system.ruby.network.sankey.vcvn6.vcvn0              0                       (Unspecified)
system.ruby.network.sankey.vcvn6.vcvn1              0                       (Unspecified)
system.ruby.network.sankey.vcvn6.vcvn10             0                       (Unspecified)
system.ruby.network.sankey.vcvn6.vcvn11             0                       (Unspecified)
system.ruby.network.sankey.vcvn6.vcvn12             0                       (Unspecified)
system.ruby.network.sankey.vcvn6.vcvn13             0                       (Unspecified)
system.ruby.network.sankey.vcvn6.vcvn14             0                       (Unspecified)
system.ruby.network.sankey.vcvn6.vcvn15             0                       (Unspecified)
system.ruby.network.sankey.vcvn6.vcvn16             0                       (Unspecified)
system.ruby.network.sankey.vcvn6.vcvn17             0                       (Unspecified)
system.ruby.network.sankey.vcvn6.vcvn2              0                       (Unspecified)
system.ruby.network.sankey.vcvn6.vcvn3              0                       (Unspecified)
system.ruby.network.sankey.vcvn6.vcvn4              0                       (Unspecified)
system.ruby.network.sankey.vcvn6.vcvn5              0                       (Unspecified)
system.ruby.network.sankey.vcvn6.vcvn6              0                       (Unspecified)
system.ruby.network.sankey.vcvn6.vcvn7              0                       (Unspecified)
system.ruby.network.sankey.vcvn6.vcvn8              0                       (Unspecified)
system.ruby.network.sankey.vcvn6.vcvn9              0                       (Unspecified)
system.ruby.network.sankey.vcvn7.vcvn0              0                       (Unspecified)
system.ruby.network.sankey.vcvn7.vcvn1              0                       (Unspecified)
system.ruby.network.sankey.vcvn7.vcvn10             0                       (Unspecified)
system.ruby.network.sankey.vcvn7.vcvn11             0                       (Unspecified)
system.ruby.network.sankey.vcvn7.vcvn12             0                       (Unspecified)
system.ruby.network.sankey.vcvn7.vcvn13             0                       (Unspecified)
system.ruby.network.sankey.vcvn7.vcvn14             0                       (Unspecified)
system.ruby.network.sankey.vcvn7.vcvn15             0                       (Unspecified)
system.ruby.network.sankey.vcvn7.vcvn16             0                       (Unspecified)
system.ruby.network.sankey.vcvn7.vcvn17             0                       (Unspecified)
system.ruby.network.sankey.vcvn7.vcvn2              0                       (Unspecified)
system.ruby.network.sankey.vcvn7.vcvn3              0                       (Unspecified)
system.ruby.network.sankey.vcvn7.vcvn4              0                       (Unspecified)
system.ruby.network.sankey.vcvn7.vcvn5              0                       (Unspecified)
system.ruby.network.sankey.vcvn7.vcvn6              0                       (Unspecified)
system.ruby.network.sankey.vcvn7.vcvn7              0                       (Unspecified)
system.ruby.network.sankey.vcvn7.vcvn8              0                       (Unspecified)
system.ruby.network.sankey.vcvn7.vcvn9              0                       (Unspecified)
system.ruby.network.sankey.vcvn8.vcvn0              0                       (Unspecified)
system.ruby.network.sankey.vcvn8.vcvn1              0                       (Unspecified)
system.ruby.network.sankey.vcvn8.vcvn10             0                       (Unspecified)
system.ruby.network.sankey.vcvn8.vcvn11             0                       (Unspecified)
system.ruby.network.sankey.vcvn8.vcvn12             0                       (Unspecified)
system.ruby.network.sankey.vcvn8.vcvn13             0                       (Unspecified)
system.ruby.network.sankey.vcvn8.vcvn14             0                       (Unspecified)
system.ruby.network.sankey.vcvn8.vcvn15             0                       (Unspecified)
system.ruby.network.sankey.vcvn8.vcvn16             0                       (Unspecified)
system.ruby.network.sankey.vcvn8.vcvn17             0                       (Unspecified)
system.ruby.network.sankey.vcvn8.vcvn2              0                       (Unspecified)
system.ruby.network.sankey.vcvn8.vcvn3              0                       (Unspecified)
system.ruby.network.sankey.vcvn8.vcvn4              0                       (Unspecified)
system.ruby.network.sankey.vcvn8.vcvn5              0                       (Unspecified)
system.ruby.network.sankey.vcvn8.vcvn6              0                       (Unspecified)
system.ruby.network.sankey.vcvn8.vcvn7              0                       (Unspecified)
system.ruby.network.sankey.vcvn8.vcvn8              0                       (Unspecified)
system.ruby.network.sankey.vcvn8.vcvn9              0                       (Unspecified)
system.ruby.network.sankey.vcvn9.vcvn0              0                       (Unspecified)
system.ruby.network.sankey.vcvn9.vcvn1              0                       (Unspecified)
system.ruby.network.sankey.vcvn9.vcvn10             0                       (Unspecified)
system.ruby.network.sankey.vcvn9.vcvn11             0                       (Unspecified)
system.ruby.network.sankey.vcvn9.vcvn12             0                       (Unspecified)
system.ruby.network.sankey.vcvn9.vcvn13             0                       (Unspecified)
system.ruby.network.sankey.vcvn9.vcvn14             0                       (Unspecified)
system.ruby.network.sankey.vcvn9.vcvn15             0                       (Unspecified)
system.ruby.network.sankey.vcvn9.vcvn16             0                       (Unspecified)
system.ruby.network.sankey.vcvn9.vcvn17             0                       (Unspecified)
system.ruby.network.sankey.vcvn9.vcvn2              0                       (Unspecified)
system.ruby.network.sankey.vcvn9.vcvn3              0                       (Unspecified)
system.ruby.network.sankey.vcvn9.vcvn4              0                       (Unspecified)
system.ruby.network.sankey.vcvn9.vcvn5              0                       (Unspecified)
system.ruby.network.sankey.vcvn9.vcvn6              0                       (Unspecified)
system.ruby.network.sankey.vcvn9.vcvn7              0                       (Unspecified)
system.ruby.network.sankey.vcvn9.vcvn8              0                       (Unspecified)
system.ruby.network.sankey.vcvn9.vcvn9              0                       (Unspecified)

---------- End Simulation Statistics   ----------
