
---------- Begin Simulation Statistics ----------
simSeconds                                   0.002147                       # Number of seconds simulated (Second)
simTicks                                   2147483750                       # Number of ticks simulated (Tick)
finalTick                                  2147483750                       # Number of ticks from beginning of simulation (restored from checkpoints and never reset) (Tick)
simFreq                                  1000000000000                       # The number of ticks per simulated second ((Tick/Second))
hostSeconds                                    995.54                       # Real time elapsed on the host (Second)
hostTickRate                                  2157111                       # The number of ticks simulated per host second (ticks/s) ((Tick/Second))
hostMemory                                     792348                       # Number of bytes of host memory used (Byte)
system.clk_domain.clock                           250                       # Clock period in ticks (Tick)
system.cpu0.power_state.pwrStateResidencyTicks::UNDEFINED   2147483750                       # Cumulative time (in ticks) in various power states (Tick)
system.cpu1.power_state.pwrStateResidencyTicks::UNDEFINED   2147483750                       # Cumulative time (in ticks) in various power states (Tick)
system.cpu10.power_state.pwrStateResidencyTicks::UNDEFINED   2147483750                       # Cumulative time (in ticks) in various power states (Tick)
system.cpu11.power_state.pwrStateResidencyTicks::UNDEFINED   2147483750                       # Cumulative time (in ticks) in various power states (Tick)
system.cpu12.power_state.pwrStateResidencyTicks::UNDEFINED   2147483750                       # Cumulative time (in ticks) in various power states (Tick)
system.cpu13.power_state.pwrStateResidencyTicks::UNDEFINED   2147483750                       # Cumulative time (in ticks) in various power states (Tick)
system.cpu14.power_state.pwrStateResidencyTicks::UNDEFINED   2147483750                       # Cumulative time (in ticks) in various power states (Tick)
system.cpu15.power_state.pwrStateResidencyTicks::UNDEFINED   2147483750                       # Cumulative time (in ticks) in various power states (Tick)
system.cpu16.power_state.pwrStateResidencyTicks::UNDEFINED   2147483750                       # Cumulative time (in ticks) in various power states (Tick)
system.cpu17.power_state.pwrStateResidencyTicks::UNDEFINED   2147483750                       # Cumulative time (in ticks) in various power states (Tick)
system.cpu18.power_state.pwrStateResidencyTicks::UNDEFINED   2147483750                       # Cumulative time (in ticks) in various power states (Tick)
system.cpu19.power_state.pwrStateResidencyTicks::UNDEFINED   2147483750                       # Cumulative time (in ticks) in various power states (Tick)
system.cpu2.power_state.pwrStateResidencyTicks::UNDEFINED   2147483750                       # Cumulative time (in ticks) in various power states (Tick)
system.cpu20.power_state.pwrStateResidencyTicks::UNDEFINED   2147483750                       # Cumulative time (in ticks) in various power states (Tick)
system.cpu21.power_state.pwrStateResidencyTicks::UNDEFINED   2147483750                       # Cumulative time (in ticks) in various power states (Tick)
system.cpu22.power_state.pwrStateResidencyTicks::UNDEFINED   2147483750                       # Cumulative time (in ticks) in various power states (Tick)
system.cpu23.power_state.pwrStateResidencyTicks::UNDEFINED   2147483750                       # Cumulative time (in ticks) in various power states (Tick)
system.cpu24.power_state.pwrStateResidencyTicks::UNDEFINED   2147483750                       # Cumulative time (in ticks) in various power states (Tick)
system.cpu25.power_state.pwrStateResidencyTicks::UNDEFINED   2147483750                       # Cumulative time (in ticks) in various power states (Tick)
system.cpu26.power_state.pwrStateResidencyTicks::UNDEFINED   2147483750                       # Cumulative time (in ticks) in various power states (Tick)
system.cpu27.power_state.pwrStateResidencyTicks::UNDEFINED   2147483750                       # Cumulative time (in ticks) in various power states (Tick)
system.cpu28.power_state.pwrStateResidencyTicks::UNDEFINED   2147483750                       # Cumulative time (in ticks) in various power states (Tick)
system.cpu29.power_state.pwrStateResidencyTicks::UNDEFINED   2147483750                       # Cumulative time (in ticks) in various power states (Tick)
system.cpu3.power_state.pwrStateResidencyTicks::UNDEFINED   2147483750                       # Cumulative time (in ticks) in various power states (Tick)
system.cpu30.power_state.pwrStateResidencyTicks::UNDEFINED   2147483750                       # Cumulative time (in ticks) in various power states (Tick)
system.cpu31.power_state.pwrStateResidencyTicks::UNDEFINED   2147483750                       # Cumulative time (in ticks) in various power states (Tick)
system.cpu32.power_state.pwrStateResidencyTicks::UNDEFINED   2147483750                       # Cumulative time (in ticks) in various power states (Tick)
system.cpu33.power_state.pwrStateResidencyTicks::UNDEFINED   2147483750                       # Cumulative time (in ticks) in various power states (Tick)
system.cpu34.power_state.pwrStateResidencyTicks::UNDEFINED   2147483750                       # Cumulative time (in ticks) in various power states (Tick)
system.cpu35.power_state.pwrStateResidencyTicks::UNDEFINED   2147483750                       # Cumulative time (in ticks) in various power states (Tick)
system.cpu36.power_state.pwrStateResidencyTicks::UNDEFINED   2147483750                       # Cumulative time (in ticks) in various power states (Tick)
system.cpu37.power_state.pwrStateResidencyTicks::UNDEFINED   2147483750                       # Cumulative time (in ticks) in various power states (Tick)
system.cpu38.power_state.pwrStateResidencyTicks::UNDEFINED   2147483750                       # Cumulative time (in ticks) in various power states (Tick)
system.cpu39.power_state.pwrStateResidencyTicks::UNDEFINED   2147483750                       # Cumulative time (in ticks) in various power states (Tick)
system.cpu4.power_state.pwrStateResidencyTicks::UNDEFINED   2147483750                       # Cumulative time (in ticks) in various power states (Tick)
system.cpu5.power_state.pwrStateResidencyTicks::UNDEFINED   2147483750                       # Cumulative time (in ticks) in various power states (Tick)
system.cpu6.power_state.pwrStateResidencyTicks::UNDEFINED   2147483750                       # Cumulative time (in ticks) in various power states (Tick)
system.cpu7.power_state.pwrStateResidencyTicks::UNDEFINED   2147483750                       # Cumulative time (in ticks) in various power states (Tick)
system.cpu8.power_state.pwrStateResidencyTicks::UNDEFINED   2147483750                       # Cumulative time (in ticks) in various power states (Tick)
system.cpu9.power_state.pwrStateResidencyTicks::UNDEFINED   2147483750                       # Cumulative time (in ticks) in various power states (Tick)
system.mem_ctrls0.power_state.pwrStateResidencyTicks::UNDEFINED   2147483750                       # Cumulative time (in ticks) in various power states (Tick)
system.mem_ctrls1.power_state.pwrStateResidencyTicks::UNDEFINED   2147483750                       # Cumulative time (in ticks) in various power states (Tick)
system.mem_ctrls10.power_state.pwrStateResidencyTicks::UNDEFINED   2147483750                       # Cumulative time (in ticks) in various power states (Tick)
system.mem_ctrls100.power_state.pwrStateResidencyTicks::UNDEFINED   2147483750                       # Cumulative time (in ticks) in various power states (Tick)
system.mem_ctrls101.power_state.pwrStateResidencyTicks::UNDEFINED   2147483750                       # Cumulative time (in ticks) in various power states (Tick)
system.mem_ctrls102.power_state.pwrStateResidencyTicks::UNDEFINED   2147483750                       # Cumulative time (in ticks) in various power states (Tick)
system.mem_ctrls103.power_state.pwrStateResidencyTicks::UNDEFINED   2147483750                       # Cumulative time (in ticks) in various power states (Tick)
system.mem_ctrls104.power_state.pwrStateResidencyTicks::UNDEFINED   2147483750                       # Cumulative time (in ticks) in various power states (Tick)
system.mem_ctrls105.power_state.pwrStateResidencyTicks::UNDEFINED   2147483750                       # Cumulative time (in ticks) in various power states (Tick)
system.mem_ctrls106.power_state.pwrStateResidencyTicks::UNDEFINED   2147483750                       # Cumulative time (in ticks) in various power states (Tick)
system.mem_ctrls107.power_state.pwrStateResidencyTicks::UNDEFINED   2147483750                       # Cumulative time (in ticks) in various power states (Tick)
system.mem_ctrls108.power_state.pwrStateResidencyTicks::UNDEFINED   2147483750                       # Cumulative time (in ticks) in various power states (Tick)
system.mem_ctrls109.power_state.pwrStateResidencyTicks::UNDEFINED   2147483750                       # Cumulative time (in ticks) in various power states (Tick)
system.mem_ctrls11.power_state.pwrStateResidencyTicks::UNDEFINED   2147483750                       # Cumulative time (in ticks) in various power states (Tick)
system.mem_ctrls110.power_state.pwrStateResidencyTicks::UNDEFINED   2147483750                       # Cumulative time (in ticks) in various power states (Tick)
system.mem_ctrls111.power_state.pwrStateResidencyTicks::UNDEFINED   2147483750                       # Cumulative time (in ticks) in various power states (Tick)
system.mem_ctrls112.power_state.pwrStateResidencyTicks::UNDEFINED   2147483750                       # Cumulative time (in ticks) in various power states (Tick)
system.mem_ctrls113.power_state.pwrStateResidencyTicks::UNDEFINED   2147483750                       # Cumulative time (in ticks) in various power states (Tick)
system.mem_ctrls114.power_state.pwrStateResidencyTicks::UNDEFINED   2147483750                       # Cumulative time (in ticks) in various power states (Tick)
system.mem_ctrls115.power_state.pwrStateResidencyTicks::UNDEFINED   2147483750                       # Cumulative time (in ticks) in various power states (Tick)
system.mem_ctrls116.power_state.pwrStateResidencyTicks::UNDEFINED   2147483750                       # Cumulative time (in ticks) in various power states (Tick)
system.mem_ctrls117.power_state.pwrStateResidencyTicks::UNDEFINED   2147483750                       # Cumulative time (in ticks) in various power states (Tick)
system.mem_ctrls118.power_state.pwrStateResidencyTicks::UNDEFINED   2147483750                       # Cumulative time (in ticks) in various power states (Tick)
system.mem_ctrls119.power_state.pwrStateResidencyTicks::UNDEFINED   2147483750                       # Cumulative time (in ticks) in various power states (Tick)
system.mem_ctrls12.power_state.pwrStateResidencyTicks::UNDEFINED   2147483750                       # Cumulative time (in ticks) in various power states (Tick)
system.mem_ctrls120.power_state.pwrStateResidencyTicks::UNDEFINED   2147483750                       # Cumulative time (in ticks) in various power states (Tick)
system.mem_ctrls121.power_state.pwrStateResidencyTicks::UNDEFINED   2147483750                       # Cumulative time (in ticks) in various power states (Tick)
system.mem_ctrls122.power_state.pwrStateResidencyTicks::UNDEFINED   2147483750                       # Cumulative time (in ticks) in various power states (Tick)
system.mem_ctrls123.power_state.pwrStateResidencyTicks::UNDEFINED   2147483750                       # Cumulative time (in ticks) in various power states (Tick)
system.mem_ctrls124.power_state.pwrStateResidencyTicks::UNDEFINED   2147483750                       # Cumulative time (in ticks) in various power states (Tick)
system.mem_ctrls125.power_state.pwrStateResidencyTicks::UNDEFINED   2147483750                       # Cumulative time (in ticks) in various power states (Tick)
system.mem_ctrls126.power_state.pwrStateResidencyTicks::UNDEFINED   2147483750                       # Cumulative time (in ticks) in various power states (Tick)
system.mem_ctrls127.power_state.pwrStateResidencyTicks::UNDEFINED   2147483750                       # Cumulative time (in ticks) in various power states (Tick)
system.mem_ctrls128.power_state.pwrStateResidencyTicks::UNDEFINED   2147483750                       # Cumulative time (in ticks) in various power states (Tick)
system.mem_ctrls129.power_state.pwrStateResidencyTicks::UNDEFINED   2147483750                       # Cumulative time (in ticks) in various power states (Tick)
system.mem_ctrls13.power_state.pwrStateResidencyTicks::UNDEFINED   2147483750                       # Cumulative time (in ticks) in various power states (Tick)
system.mem_ctrls130.power_state.pwrStateResidencyTicks::UNDEFINED   2147483750                       # Cumulative time (in ticks) in various power states (Tick)
system.mem_ctrls131.power_state.pwrStateResidencyTicks::UNDEFINED   2147483750                       # Cumulative time (in ticks) in various power states (Tick)
system.mem_ctrls132.power_state.pwrStateResidencyTicks::UNDEFINED   2147483750                       # Cumulative time (in ticks) in various power states (Tick)
system.mem_ctrls133.power_state.pwrStateResidencyTicks::UNDEFINED   2147483750                       # Cumulative time (in ticks) in various power states (Tick)
system.mem_ctrls134.power_state.pwrStateResidencyTicks::UNDEFINED   2147483750                       # Cumulative time (in ticks) in various power states (Tick)
system.mem_ctrls135.power_state.pwrStateResidencyTicks::UNDEFINED   2147483750                       # Cumulative time (in ticks) in various power states (Tick)
system.mem_ctrls136.power_state.pwrStateResidencyTicks::UNDEFINED   2147483750                       # Cumulative time (in ticks) in various power states (Tick)
system.mem_ctrls137.power_state.pwrStateResidencyTicks::UNDEFINED   2147483750                       # Cumulative time (in ticks) in various power states (Tick)
system.mem_ctrls138.power_state.pwrStateResidencyTicks::UNDEFINED   2147483750                       # Cumulative time (in ticks) in various power states (Tick)
system.mem_ctrls139.power_state.pwrStateResidencyTicks::UNDEFINED   2147483750                       # Cumulative time (in ticks) in various power states (Tick)
system.mem_ctrls14.power_state.pwrStateResidencyTicks::UNDEFINED   2147483750                       # Cumulative time (in ticks) in various power states (Tick)
system.mem_ctrls140.power_state.pwrStateResidencyTicks::UNDEFINED   2147483750                       # Cumulative time (in ticks) in various power states (Tick)
system.mem_ctrls141.power_state.pwrStateResidencyTicks::UNDEFINED   2147483750                       # Cumulative time (in ticks) in various power states (Tick)
system.mem_ctrls142.power_state.pwrStateResidencyTicks::UNDEFINED   2147483750                       # Cumulative time (in ticks) in various power states (Tick)
system.mem_ctrls143.power_state.pwrStateResidencyTicks::UNDEFINED   2147483750                       # Cumulative time (in ticks) in various power states (Tick)
system.mem_ctrls144.power_state.pwrStateResidencyTicks::UNDEFINED   2147483750                       # Cumulative time (in ticks) in various power states (Tick)
system.mem_ctrls145.power_state.pwrStateResidencyTicks::UNDEFINED   2147483750                       # Cumulative time (in ticks) in various power states (Tick)
system.mem_ctrls146.power_state.pwrStateResidencyTicks::UNDEFINED   2147483750                       # Cumulative time (in ticks) in various power states (Tick)
system.mem_ctrls147.power_state.pwrStateResidencyTicks::UNDEFINED   2147483750                       # Cumulative time (in ticks) in various power states (Tick)
system.mem_ctrls148.power_state.pwrStateResidencyTicks::UNDEFINED   2147483750                       # Cumulative time (in ticks) in various power states (Tick)
system.mem_ctrls149.power_state.pwrStateResidencyTicks::UNDEFINED   2147483750                       # Cumulative time (in ticks) in various power states (Tick)
system.mem_ctrls15.power_state.pwrStateResidencyTicks::UNDEFINED   2147483750                       # Cumulative time (in ticks) in various power states (Tick)
system.mem_ctrls150.power_state.pwrStateResidencyTicks::UNDEFINED   2147483750                       # Cumulative time (in ticks) in various power states (Tick)
system.mem_ctrls151.power_state.pwrStateResidencyTicks::UNDEFINED   2147483750                       # Cumulative time (in ticks) in various power states (Tick)
system.mem_ctrls152.power_state.pwrStateResidencyTicks::UNDEFINED   2147483750                       # Cumulative time (in ticks) in various power states (Tick)
system.mem_ctrls153.power_state.pwrStateResidencyTicks::UNDEFINED   2147483750                       # Cumulative time (in ticks) in various power states (Tick)
system.mem_ctrls154.power_state.pwrStateResidencyTicks::UNDEFINED   2147483750                       # Cumulative time (in ticks) in various power states (Tick)
system.mem_ctrls155.power_state.pwrStateResidencyTicks::UNDEFINED   2147483750                       # Cumulative time (in ticks) in various power states (Tick)
system.mem_ctrls156.power_state.pwrStateResidencyTicks::UNDEFINED   2147483750                       # Cumulative time (in ticks) in various power states (Tick)
system.mem_ctrls157.power_state.pwrStateResidencyTicks::UNDEFINED   2147483750                       # Cumulative time (in ticks) in various power states (Tick)
system.mem_ctrls158.power_state.pwrStateResidencyTicks::UNDEFINED   2147483750                       # Cumulative time (in ticks) in various power states (Tick)
system.mem_ctrls159.power_state.pwrStateResidencyTicks::UNDEFINED   2147483750                       # Cumulative time (in ticks) in various power states (Tick)
system.mem_ctrls16.power_state.pwrStateResidencyTicks::UNDEFINED   2147483750                       # Cumulative time (in ticks) in various power states (Tick)
system.mem_ctrls17.power_state.pwrStateResidencyTicks::UNDEFINED   2147483750                       # Cumulative time (in ticks) in various power states (Tick)
system.mem_ctrls18.power_state.pwrStateResidencyTicks::UNDEFINED   2147483750                       # Cumulative time (in ticks) in various power states (Tick)
system.mem_ctrls19.power_state.pwrStateResidencyTicks::UNDEFINED   2147483750                       # Cumulative time (in ticks) in various power states (Tick)
system.mem_ctrls2.power_state.pwrStateResidencyTicks::UNDEFINED   2147483750                       # Cumulative time (in ticks) in various power states (Tick)
system.mem_ctrls20.power_state.pwrStateResidencyTicks::UNDEFINED   2147483750                       # Cumulative time (in ticks) in various power states (Tick)
system.mem_ctrls21.power_state.pwrStateResidencyTicks::UNDEFINED   2147483750                       # Cumulative time (in ticks) in various power states (Tick)
system.mem_ctrls22.power_state.pwrStateResidencyTicks::UNDEFINED   2147483750                       # Cumulative time (in ticks) in various power states (Tick)
system.mem_ctrls23.power_state.pwrStateResidencyTicks::UNDEFINED   2147483750                       # Cumulative time (in ticks) in various power states (Tick)
system.mem_ctrls24.power_state.pwrStateResidencyTicks::UNDEFINED   2147483750                       # Cumulative time (in ticks) in various power states (Tick)
system.mem_ctrls25.power_state.pwrStateResidencyTicks::UNDEFINED   2147483750                       # Cumulative time (in ticks) in various power states (Tick)
system.mem_ctrls26.power_state.pwrStateResidencyTicks::UNDEFINED   2147483750                       # Cumulative time (in ticks) in various power states (Tick)
system.mem_ctrls27.power_state.pwrStateResidencyTicks::UNDEFINED   2147483750                       # Cumulative time (in ticks) in various power states (Tick)
system.mem_ctrls28.power_state.pwrStateResidencyTicks::UNDEFINED   2147483750                       # Cumulative time (in ticks) in various power states (Tick)
system.mem_ctrls29.power_state.pwrStateResidencyTicks::UNDEFINED   2147483750                       # Cumulative time (in ticks) in various power states (Tick)
system.mem_ctrls3.power_state.pwrStateResidencyTicks::UNDEFINED   2147483750                       # Cumulative time (in ticks) in various power states (Tick)
system.mem_ctrls30.power_state.pwrStateResidencyTicks::UNDEFINED   2147483750                       # Cumulative time (in ticks) in various power states (Tick)
system.mem_ctrls31.power_state.pwrStateResidencyTicks::UNDEFINED   2147483750                       # Cumulative time (in ticks) in various power states (Tick)
system.mem_ctrls32.power_state.pwrStateResidencyTicks::UNDEFINED   2147483750                       # Cumulative time (in ticks) in various power states (Tick)
system.mem_ctrls33.power_state.pwrStateResidencyTicks::UNDEFINED   2147483750                       # Cumulative time (in ticks) in various power states (Tick)
system.mem_ctrls34.power_state.pwrStateResidencyTicks::UNDEFINED   2147483750                       # Cumulative time (in ticks) in various power states (Tick)
system.mem_ctrls35.power_state.pwrStateResidencyTicks::UNDEFINED   2147483750                       # Cumulative time (in ticks) in various power states (Tick)
system.mem_ctrls36.power_state.pwrStateResidencyTicks::UNDEFINED   2147483750                       # Cumulative time (in ticks) in various power states (Tick)
system.mem_ctrls37.power_state.pwrStateResidencyTicks::UNDEFINED   2147483750                       # Cumulative time (in ticks) in various power states (Tick)
system.mem_ctrls38.power_state.pwrStateResidencyTicks::UNDEFINED   2147483750                       # Cumulative time (in ticks) in various power states (Tick)
system.mem_ctrls39.power_state.pwrStateResidencyTicks::UNDEFINED   2147483750                       # Cumulative time (in ticks) in various power states (Tick)
system.mem_ctrls4.power_state.pwrStateResidencyTicks::UNDEFINED   2147483750                       # Cumulative time (in ticks) in various power states (Tick)
system.mem_ctrls40.power_state.pwrStateResidencyTicks::UNDEFINED   2147483750                       # Cumulative time (in ticks) in various power states (Tick)
system.mem_ctrls41.power_state.pwrStateResidencyTicks::UNDEFINED   2147483750                       # Cumulative time (in ticks) in various power states (Tick)
system.mem_ctrls42.power_state.pwrStateResidencyTicks::UNDEFINED   2147483750                       # Cumulative time (in ticks) in various power states (Tick)
system.mem_ctrls43.power_state.pwrStateResidencyTicks::UNDEFINED   2147483750                       # Cumulative time (in ticks) in various power states (Tick)
system.mem_ctrls44.power_state.pwrStateResidencyTicks::UNDEFINED   2147483750                       # Cumulative time (in ticks) in various power states (Tick)
system.mem_ctrls45.power_state.pwrStateResidencyTicks::UNDEFINED   2147483750                       # Cumulative time (in ticks) in various power states (Tick)
system.mem_ctrls46.power_state.pwrStateResidencyTicks::UNDEFINED   2147483750                       # Cumulative time (in ticks) in various power states (Tick)
system.mem_ctrls47.power_state.pwrStateResidencyTicks::UNDEFINED   2147483750                       # Cumulative time (in ticks) in various power states (Tick)
system.mem_ctrls48.power_state.pwrStateResidencyTicks::UNDEFINED   2147483750                       # Cumulative time (in ticks) in various power states (Tick)
system.mem_ctrls49.power_state.pwrStateResidencyTicks::UNDEFINED   2147483750                       # Cumulative time (in ticks) in various power states (Tick)
system.mem_ctrls5.power_state.pwrStateResidencyTicks::UNDEFINED   2147483750                       # Cumulative time (in ticks) in various power states (Tick)
system.mem_ctrls50.power_state.pwrStateResidencyTicks::UNDEFINED   2147483750                       # Cumulative time (in ticks) in various power states (Tick)
system.mem_ctrls51.power_state.pwrStateResidencyTicks::UNDEFINED   2147483750                       # Cumulative time (in ticks) in various power states (Tick)
system.mem_ctrls52.power_state.pwrStateResidencyTicks::UNDEFINED   2147483750                       # Cumulative time (in ticks) in various power states (Tick)
system.mem_ctrls53.power_state.pwrStateResidencyTicks::UNDEFINED   2147483750                       # Cumulative time (in ticks) in various power states (Tick)
system.mem_ctrls54.power_state.pwrStateResidencyTicks::UNDEFINED   2147483750                       # Cumulative time (in ticks) in various power states (Tick)
system.mem_ctrls55.power_state.pwrStateResidencyTicks::UNDEFINED   2147483750                       # Cumulative time (in ticks) in various power states (Tick)
system.mem_ctrls56.power_state.pwrStateResidencyTicks::UNDEFINED   2147483750                       # Cumulative time (in ticks) in various power states (Tick)
system.mem_ctrls57.power_state.pwrStateResidencyTicks::UNDEFINED   2147483750                       # Cumulative time (in ticks) in various power states (Tick)
system.mem_ctrls58.power_state.pwrStateResidencyTicks::UNDEFINED   2147483750                       # Cumulative time (in ticks) in various power states (Tick)
system.mem_ctrls59.power_state.pwrStateResidencyTicks::UNDEFINED   2147483750                       # Cumulative time (in ticks) in various power states (Tick)
system.mem_ctrls6.power_state.pwrStateResidencyTicks::UNDEFINED   2147483750                       # Cumulative time (in ticks) in various power states (Tick)
system.mem_ctrls60.power_state.pwrStateResidencyTicks::UNDEFINED   2147483750                       # Cumulative time (in ticks) in various power states (Tick)
system.mem_ctrls61.power_state.pwrStateResidencyTicks::UNDEFINED   2147483750                       # Cumulative time (in ticks) in various power states (Tick)
system.mem_ctrls62.power_state.pwrStateResidencyTicks::UNDEFINED   2147483750                       # Cumulative time (in ticks) in various power states (Tick)
system.mem_ctrls63.power_state.pwrStateResidencyTicks::UNDEFINED   2147483750                       # Cumulative time (in ticks) in various power states (Tick)
system.mem_ctrls64.power_state.pwrStateResidencyTicks::UNDEFINED   2147483750                       # Cumulative time (in ticks) in various power states (Tick)
system.mem_ctrls65.power_state.pwrStateResidencyTicks::UNDEFINED   2147483750                       # Cumulative time (in ticks) in various power states (Tick)
system.mem_ctrls66.power_state.pwrStateResidencyTicks::UNDEFINED   2147483750                       # Cumulative time (in ticks) in various power states (Tick)
system.mem_ctrls67.power_state.pwrStateResidencyTicks::UNDEFINED   2147483750                       # Cumulative time (in ticks) in various power states (Tick)
system.mem_ctrls68.power_state.pwrStateResidencyTicks::UNDEFINED   2147483750                       # Cumulative time (in ticks) in various power states (Tick)
system.mem_ctrls69.power_state.pwrStateResidencyTicks::UNDEFINED   2147483750                       # Cumulative time (in ticks) in various power states (Tick)
system.mem_ctrls7.power_state.pwrStateResidencyTicks::UNDEFINED   2147483750                       # Cumulative time (in ticks) in various power states (Tick)
system.mem_ctrls70.power_state.pwrStateResidencyTicks::UNDEFINED   2147483750                       # Cumulative time (in ticks) in various power states (Tick)
system.mem_ctrls71.power_state.pwrStateResidencyTicks::UNDEFINED   2147483750                       # Cumulative time (in ticks) in various power states (Tick)
system.mem_ctrls72.power_state.pwrStateResidencyTicks::UNDEFINED   2147483750                       # Cumulative time (in ticks) in various power states (Tick)
system.mem_ctrls73.power_state.pwrStateResidencyTicks::UNDEFINED   2147483750                       # Cumulative time (in ticks) in various power states (Tick)
system.mem_ctrls74.power_state.pwrStateResidencyTicks::UNDEFINED   2147483750                       # Cumulative time (in ticks) in various power states (Tick)
system.mem_ctrls75.power_state.pwrStateResidencyTicks::UNDEFINED   2147483750                       # Cumulative time (in ticks) in various power states (Tick)
system.mem_ctrls76.power_state.pwrStateResidencyTicks::UNDEFINED   2147483750                       # Cumulative time (in ticks) in various power states (Tick)
system.mem_ctrls77.power_state.pwrStateResidencyTicks::UNDEFINED   2147483750                       # Cumulative time (in ticks) in various power states (Tick)
system.mem_ctrls78.power_state.pwrStateResidencyTicks::UNDEFINED   2147483750                       # Cumulative time (in ticks) in various power states (Tick)
system.mem_ctrls79.power_state.pwrStateResidencyTicks::UNDEFINED   2147483750                       # Cumulative time (in ticks) in various power states (Tick)
system.mem_ctrls8.power_state.pwrStateResidencyTicks::UNDEFINED   2147483750                       # Cumulative time (in ticks) in various power states (Tick)
system.mem_ctrls80.power_state.pwrStateResidencyTicks::UNDEFINED   2147483750                       # Cumulative time (in ticks) in various power states (Tick)
system.mem_ctrls81.power_state.pwrStateResidencyTicks::UNDEFINED   2147483750                       # Cumulative time (in ticks) in various power states (Tick)
system.mem_ctrls82.power_state.pwrStateResidencyTicks::UNDEFINED   2147483750                       # Cumulative time (in ticks) in various power states (Tick)
system.mem_ctrls83.power_state.pwrStateResidencyTicks::UNDEFINED   2147483750                       # Cumulative time (in ticks) in various power states (Tick)
system.mem_ctrls84.power_state.pwrStateResidencyTicks::UNDEFINED   2147483750                       # Cumulative time (in ticks) in various power states (Tick)
system.mem_ctrls85.power_state.pwrStateResidencyTicks::UNDEFINED   2147483750                       # Cumulative time (in ticks) in various power states (Tick)
system.mem_ctrls86.power_state.pwrStateResidencyTicks::UNDEFINED   2147483750                       # Cumulative time (in ticks) in various power states (Tick)
system.mem_ctrls87.power_state.pwrStateResidencyTicks::UNDEFINED   2147483750                       # Cumulative time (in ticks) in various power states (Tick)
system.mem_ctrls88.power_state.pwrStateResidencyTicks::UNDEFINED   2147483750                       # Cumulative time (in ticks) in various power states (Tick)
system.mem_ctrls89.power_state.pwrStateResidencyTicks::UNDEFINED   2147483750                       # Cumulative time (in ticks) in various power states (Tick)
system.mem_ctrls9.power_state.pwrStateResidencyTicks::UNDEFINED   2147483750                       # Cumulative time (in ticks) in various power states (Tick)
system.mem_ctrls90.power_state.pwrStateResidencyTicks::UNDEFINED   2147483750                       # Cumulative time (in ticks) in various power states (Tick)
system.mem_ctrls91.power_state.pwrStateResidencyTicks::UNDEFINED   2147483750                       # Cumulative time (in ticks) in various power states (Tick)
system.mem_ctrls92.power_state.pwrStateResidencyTicks::UNDEFINED   2147483750                       # Cumulative time (in ticks) in various power states (Tick)
system.mem_ctrls93.power_state.pwrStateResidencyTicks::UNDEFINED   2147483750                       # Cumulative time (in ticks) in various power states (Tick)
system.mem_ctrls94.power_state.pwrStateResidencyTicks::UNDEFINED   2147483750                       # Cumulative time (in ticks) in various power states (Tick)
system.mem_ctrls95.power_state.pwrStateResidencyTicks::UNDEFINED   2147483750                       # Cumulative time (in ticks) in various power states (Tick)
system.mem_ctrls96.power_state.pwrStateResidencyTicks::UNDEFINED   2147483750                       # Cumulative time (in ticks) in various power states (Tick)
system.mem_ctrls97.power_state.pwrStateResidencyTicks::UNDEFINED   2147483750                       # Cumulative time (in ticks) in various power states (Tick)
system.mem_ctrls98.power_state.pwrStateResidencyTicks::UNDEFINED   2147483750                       # Cumulative time (in ticks) in various power states (Tick)
system.mem_ctrls99.power_state.pwrStateResidencyTicks::UNDEFINED   2147483750                       # Cumulative time (in ticks) in various power states (Tick)
system.ruby.m_outstandReqHistSeqr::bucket_size            1                       (Unspecified)
system.ruby.m_outstandReqHistSeqr::max_bucket            9                       (Unspecified)
system.ruby.m_outstandReqHistSeqr::samples      5149568                       (Unspecified)
system.ruby.m_outstandReqHistSeqr::mean             1                       (Unspecified)
system.ruby.m_outstandReqHistSeqr::gmean            1                       (Unspecified)
system.ruby.m_outstandReqHistSeqr        |           0      0.00%      0.00% |     5149568    100.00%    100.00% |           0      0.00%    100.00% |           0      0.00%    100.00% |           0      0.00%    100.00% |           0      0.00%    100.00% |           0      0.00%    100.00% |           0      0.00%    100.00% |           0      0.00%    100.00% |           0      0.00%    100.00% (Unspecified)
system.ruby.m_outstandReqHistSeqr::total      5149568                       (Unspecified)
system.ruby.m_latencyHistSeqr::bucket_size            1                       (Unspecified)
system.ruby.m_latencyHistSeqr::max_bucket            9                       (Unspecified)
system.ruby.m_latencyHistSeqr::samples        5149568                       (Unspecified)
system.ruby.m_latencyHistSeqr::mean                 1                       (Unspecified)
system.ruby.m_latencyHistSeqr::gmean                1                       (Unspecified)
system.ruby.m_latencyHistSeqr            |           0      0.00%      0.00% |     5149568    100.00%    100.00% |           0      0.00%    100.00% |           0      0.00%    100.00% |           0      0.00%    100.00% |           0      0.00%    100.00% |           0      0.00%    100.00% |           0      0.00%    100.00% |           0      0.00%    100.00% |           0      0.00%    100.00% (Unspecified)
system.ruby.m_latencyHistSeqr::total          5149568                       (Unspecified)
system.ruby.m_hitLatencyHistSeqr::bucket_size            1                       (Unspecified)
system.ruby.m_hitLatencyHistSeqr::max_bucket            9                       (Unspecified)
system.ruby.m_hitLatencyHistSeqr::samples      5149568                       (Unspecified)
system.ruby.m_hitLatencyHistSeqr::mean              1                       (Unspecified)
system.ruby.m_hitLatencyHistSeqr::gmean             1                       (Unspecified)
system.ruby.m_hitLatencyHistSeqr         |           0      0.00%      0.00% |     5149568    100.00%    100.00% |           0      0.00%    100.00% |           0      0.00%    100.00% |           0      0.00%    100.00% |           0      0.00%    100.00% |           0      0.00%    100.00% |           0      0.00%    100.00% |           0      0.00%    100.00% |           0      0.00%    100.00% (Unspecified)
system.ruby.m_hitLatencyHistSeqr::total       5149568                       (Unspecified)
system.ruby.Directory_Controller.Receive_Request |       16140      0.63%      0.63% |       16088      0.62%      1.25% |       16144      0.63%      1.88% |       16116      0.63%      2.50% |       16049      0.62%      3.13% |       16328      0.63%      3.76% |       15976      0.62%      4.38% |       16063      0.62%      5.01% |       16199      0.63%      5.64% |       16110      0.63%      6.26% |       15977      0.62%      6.88% |       15932      0.62%      7.50% |       16188      0.63%      8.13% |       16093      0.63%      8.75% |       16067      0.62%      9.38% |       16040      0.62%     10.00% |       16188      0.63%     10.63% |       16116      0.63%     11.26% |       16266      0.63%     11.89% |       16057      0.62%     12.51% |       16284      0.63%     13.14% |       16113      0.63%     13.77% |       16146      0.63%     14.40% |       16168      0.63%     15.03% |       15983      0.62%     15.65% |       16083      0.62%     16.27% |       16224      0.63%     16.90% |       16086      0.62%     17.53% |       16258      0.63%     18.16% |       15903      0.62%     18.78% |       16075      0.62%     19.40% |       16119      0.63%     20.03% |       16156      0.63%     20.65% |       16084      0.62%     21.28% |       16106      0.63%     21.90% |       16061      0.62%     22.53% |       16112      0.63%     23.15% |       16261      0.63%     23.78% |       15891      0.62%     24.40% |       16141      0.63%     25.03% |       16184      0.63%     25.66% |       16067      0.62%     26.28% |       15961      0.62%     26.90% |       16170      0.63%     27.53% |       16017      0.62%     28.15% |       16078      0.62%     28.78% |       16033      0.62%     29.40% |       16280      0.63%     30.03% |       16170      0.63%     30.66% |       16063      0.62%     31.28% |       16073      0.62%     31.91% |       16277      0.63%     32.54% |       15930      0.62%     33.16% |       16066      0.62%     33.78% |       15861      0.62%     34.40% |       15901      0.62%     35.02% |       15903      0.62%     35.63% |       15867      0.62%     36.25% |       15907      0.62%     36.87% |       15981      0.62%     37.49% |       16168      0.63%     38.12% |       16048      0.62%     38.74% |       16058      0.62%     39.36% |       16103      0.63%     39.99% |       16099      0.63%     40.61% |       16247      0.63%     41.25% |       16218      0.63%     41.88% |       16263      0.63%     42.51% |       16004      0.62%     43.13% |       16171      0.63%     43.76% |       15855      0.62%     44.37% |       16031      0.62%     45.00% |       16229      0.63%     45.63% |       16187      0.63%     46.25% |       15967      0.62%     46.87% |       16184      0.63%     47.50% |       16206      0.63%     48.13% |       16003      0.62%     48.75% |       16136      0.63%     49.38% |       16177      0.63%     50.01% |       16137      0.63%     50.64% |       16058      0.62%     51.26% |       15966      0.62%     51.88% |       16199      0.63%     52.51% |       16245      0.63%     53.14% |       16117      0.63%     53.77% |       16177      0.63%     54.39% |       16123      0.63%     55.02% |       16420      0.64%     55.66% |       16074      0.62%     56.28% |       16124      0.63%     56.91% |       16255      0.63%     57.54% |       16080      0.62%     58.16% |       15829      0.61%     58.78% |       16276      0.63%     59.41% |       16006      0.62%     60.03% |       16045      0.62%     60.66% |       16025      0.62%     61.28% |       15976      0.62%     61.90% |       16106      0.63%     62.53% |       16134      0.63%     63.15% |       16048      0.62%     63.78% |       16201      0.63%     64.40% |       16274      0.63%     65.04% |       16239      0.63%     65.67% |       16067      0.62%     66.29% |       16054      0.62%     66.91% |       15851      0.62%     67.53% |       15949      0.62%     68.15% |       16227      0.63%     68.78% |       16115      0.63%     69.41% |       16136      0.63%     70.03% |       16055      0.62%     70.66% |       16071      0.62%     71.28% |       16081      0.62%     71.91% |       16062      0.62%     72.53% |       16017      0.62%     73.15% |       16129      0.63%     73.78% |       16122      0.63%     74.40% |       16132      0.63%     75.03% |       15818      0.61%     75.64% |       16071      0.62%     76.27% |       16085      0.62%     76.89% |       16159      0.63%     77.52% |       16096      0.63%     78.15% |       16185      0.63%     78.78% |       16240      0.63%     79.41% |       15929      0.62%     80.02% |       16227      0.63%     80.65% |       16095      0.63%     81.28% |       15840      0.62%     81.90% |       16122      0.63%     82.52% |       16191      0.63%     83.15% |       16110      0.63%     83.78% |       15879      0.62%     84.39% |       16128      0.63%     85.02% |       15858      0.62%     85.64% |       16049      0.62%     86.26% |       16078      0.62%     86.88% |       15884      0.62%     87.50% |       16115      0.63%     88.13% |       16082      0.62%     88.75% |       15891      0.62%     89.37% |       15970      0.62%     89.99% |       16095      0.63%     90.61% |       16013      0.62%     91.24% |       16121      0.63%     91.86% |       16136      0.63%     92.49% |       16003      0.62%     93.11% |       16088      0.62%     93.73% |       16097      0.63%     94.36% |       16003      0.62%     94.98% |       16167      0.63%     95.61% |       16110      0.63%     96.24% |       16160      0.63%     96.86% |       16185      0.63%     97.49% |       16244      0.63%     98.12% |       16283      0.63%     98.75% |       16092      0.63%     99.38% |       15968      0.62%    100.00% (Unspecified)
system.ruby.Directory_Controller.Receive_Request::total      2574603                       (Unspecified)
system.ruby.Directory_Controller.Receive_Response |       16187      0.63%      0.63% |       15618      0.61%      1.24% |       16446      0.64%      1.87% |       16130      0.63%      2.50% |       16105      0.63%      3.13% |       16063      0.62%      3.75% |       15990      0.62%      4.37% |       16089      0.62%      5.00% |       16170      0.63%      5.62% |       16277      0.63%      6.26% |       16286      0.63%      6.89% |       16277      0.63%      7.52% |       15975      0.62%      8.14% |       16093      0.62%      8.77% |       16116      0.63%      9.39% |       15948      0.62%     10.01% |       16038      0.62%     10.63% |       15946      0.62%     11.25% |       16065      0.62%     11.88% |       16008      0.62%     12.50% |       15993      0.62%     13.12% |       16158      0.63%     13.75% |       16158      0.63%     14.37% |       16234      0.63%     15.00% |       16149      0.63%     15.63% |       15999      0.62%     16.25% |       16185      0.63%     16.88% |       15985      0.62%     17.50% |       15977      0.62%     18.12% |       16042      0.62%     18.75% |       16158      0.63%     19.37% |       16001      0.62%     20.00% |       15945      0.62%     20.61% |       16068      0.62%     21.24% |       16214      0.63%     21.87% |       16153      0.63%     22.50% |       16028      0.62%     23.12% |       16250      0.63%     23.75% |       16038      0.62%     24.37% |       16186      0.63%     25.00% |       15963      0.62%     25.62% |       16147      0.63%     26.25% |       16064      0.62%     26.87% |       16049      0.62%     27.49% |       16345      0.63%     28.13% |       16133      0.63%     28.76% |       16196      0.63%     29.38% |       16080      0.62%     30.01% |       16180      0.63%     30.64% |       16041      0.62%     31.26% |       16174      0.63%     31.89% |       15923      0.62%     32.51% |       16118      0.63%     33.13% |       15910      0.62%     33.75% |       16144      0.63%     34.38% |       16283      0.63%     35.01% |       16135      0.63%     35.64% |       15958      0.62%     36.26% |       16142      0.63%     36.88% |       16207      0.63%     37.51% |       16050      0.62%     38.14% |       15915      0.62%     38.75% |       16028      0.62%     39.38% |       16491      0.64%     40.02% |       16070      0.62%     40.64% |       16243      0.63%     41.27% |       16081      0.62%     41.90% |       16102      0.63%     42.52% |       15985      0.62%     43.14% |       16051      0.62%     43.77% |       16249      0.63%     44.40% |       15933      0.62%     45.02% |       16109      0.63%     45.64% |       15967      0.62%     46.26% |       16172      0.63%     46.89% |       16014      0.62%     47.51% |       15977      0.62%     48.13% |       16074      0.62%     48.76% |       16092      0.62%     49.38% |       15906      0.62%     50.00% |       16179      0.63%     50.63% |       16085      0.62%     51.25% |       15970      0.62%     51.87% |       15950      0.62%     52.49% |       15825      0.61%     53.11% |       16257      0.63%     53.74% |       16238      0.63%     54.37% |       16218      0.63%     55.00% |       16146      0.63%     55.63% |       16254      0.63%     56.26% |       16102      0.63%     56.88% |       15988      0.62%     57.50% |       16256      0.63%     58.13% |       15956      0.62%     58.75% |       16093      0.62%     59.38% |       16197      0.63%     60.01% |       16137      0.63%     60.63% |       15977      0.62%     61.25% |       16172      0.63%     61.88% |       16130      0.63%     62.51% |       15970      0.62%     63.13% |       16193      0.63%     63.76% |       16139      0.63%     64.39% |       16088      0.62%     65.01% |       16031      0.62%     65.63% |       15953      0.62%     66.25% |       16207      0.63%     66.88% |       16094      0.63%     67.51% |       16146      0.63%     68.13% |       16072      0.62%     68.76% |       16051      0.62%     69.38% |       15937      0.62%     70.00% |       16194      0.63%     70.63% |       16132      0.63%     71.26% |       16087      0.62%     71.88% |       16100      0.63%     72.51% |       16047      0.62%     73.13% |       16188      0.63%     73.76% |       16058      0.62%     74.38% |       15979      0.62%     75.00% |       16150      0.63%     75.63% |       16069      0.62%     76.25% |       16231      0.63%     76.88% |       15950      0.62%     77.50% |       16063      0.62%     78.13% |       16048      0.62%     78.75% |       16098      0.63%     79.37% |       16218      0.63%     80.00% |       16343      0.63%     80.64% |       16257      0.63%     81.27% |       16036      0.62%     81.89% |       15792      0.61%     82.51% |       16113      0.63%     83.13% |       16376      0.64%     83.77% |       15773      0.61%     84.38% |       16096      0.63%     85.01% |       16034      0.62%     85.63% |       16006      0.62%     86.25% |       15871      0.62%     86.87% |       15882      0.62%     87.48% |       15884      0.62%     88.10% |       15974      0.62%     88.72% |       16146      0.63%     89.35% |       15998      0.62%     89.97% |       16057      0.62%     90.59% |       16005      0.62%     91.21% |       16199      0.63%     91.84% |       16289      0.63%     92.48% |       15966      0.62%     93.10% |       16089      0.62%     93.72% |       16245      0.63%     94.35% |       16366      0.64%     94.99% |       15903      0.62%     95.60% |       16233      0.63%     96.24% |       16198      0.63%     96.86% |       16074      0.62%     97.49% |       16091      0.62%     98.11% |       16315      0.63%     98.75% |       16154      0.63%     99.37% |       16111      0.63%    100.00% (Unspecified)
system.ruby.Directory_Controller.Receive_Response::total      2574948                       (Unspecified)
system.ruby.Directory_Controller.I.Receive_Request |       16140      0.63%      0.63% |       16088      0.62%      1.25% |       16144      0.63%      1.88% |       16116      0.63%      2.50% |       16049      0.62%      3.13% |       16328      0.63%      3.76% |       15976      0.62%      4.38% |       16063      0.62%      5.01% |       16199      0.63%      5.64% |       16110      0.63%      6.26% |       15977      0.62%      6.88% |       15932      0.62%      7.50% |       16188      0.63%      8.13% |       16093      0.63%      8.75% |       16067      0.62%      9.38% |       16040      0.62%     10.00% |       16188      0.63%     10.63% |       16116      0.63%     11.26% |       16266      0.63%     11.89% |       16057      0.62%     12.51% |       16284      0.63%     13.14% |       16113      0.63%     13.77% |       16146      0.63%     14.40% |       16168      0.63%     15.03% |       15983      0.62%     15.65% |       16083      0.62%     16.27% |       16224      0.63%     16.90% |       16086      0.62%     17.53% |       16258      0.63%     18.16% |       15903      0.62%     18.78% |       16075      0.62%     19.40% |       16119      0.63%     20.03% |       16156      0.63%     20.65% |       16084      0.62%     21.28% |       16106      0.63%     21.90% |       16061      0.62%     22.53% |       16112      0.63%     23.15% |       16261      0.63%     23.78% |       15891      0.62%     24.40% |       16141      0.63%     25.03% |       16184      0.63%     25.66% |       16067      0.62%     26.28% |       15961      0.62%     26.90% |       16170      0.63%     27.53% |       16017      0.62%     28.15% |       16078      0.62%     28.78% |       16033      0.62%     29.40% |       16280      0.63%     30.03% |       16170      0.63%     30.66% |       16063      0.62%     31.28% |       16073      0.62%     31.91% |       16277      0.63%     32.54% |       15930      0.62%     33.16% |       16066      0.62%     33.78% |       15861      0.62%     34.40% |       15901      0.62%     35.02% |       15903      0.62%     35.63% |       15867      0.62%     36.25% |       15907      0.62%     36.87% |       15981      0.62%     37.49% |       16168      0.63%     38.12% |       16048      0.62%     38.74% |       16058      0.62%     39.36% |       16103      0.63%     39.99% |       16099      0.63%     40.61% |       16247      0.63%     41.25% |       16218      0.63%     41.88% |       16263      0.63%     42.51% |       16004      0.62%     43.13% |       16171      0.63%     43.76% |       15855      0.62%     44.37% |       16031      0.62%     45.00% |       16229      0.63%     45.63% |       16187      0.63%     46.25% |       15967      0.62%     46.87% |       16184      0.63%     47.50% |       16206      0.63%     48.13% |       16003      0.62%     48.75% |       16136      0.63%     49.38% |       16177      0.63%     50.01% |       16137      0.63%     50.64% |       16058      0.62%     51.26% |       15966      0.62%     51.88% |       16199      0.63%     52.51% |       16245      0.63%     53.14% |       16117      0.63%     53.77% |       16177      0.63%     54.39% |       16123      0.63%     55.02% |       16420      0.64%     55.66% |       16074      0.62%     56.28% |       16124      0.63%     56.91% |       16255      0.63%     57.54% |       16080      0.62%     58.16% |       15829      0.61%     58.78% |       16276      0.63%     59.41% |       16006      0.62%     60.03% |       16045      0.62%     60.66% |       16025      0.62%     61.28% |       15976      0.62%     61.90% |       16106      0.63%     62.53% |       16134      0.63%     63.15% |       16048      0.62%     63.78% |       16201      0.63%     64.40% |       16274      0.63%     65.04% |       16239      0.63%     65.67% |       16067      0.62%     66.29% |       16054      0.62%     66.91% |       15851      0.62%     67.53% |       15949      0.62%     68.15% |       16227      0.63%     68.78% |       16115      0.63%     69.41% |       16136      0.63%     70.03% |       16055      0.62%     70.66% |       16071      0.62%     71.28% |       16081      0.62%     71.91% |       16062      0.62%     72.53% |       16017      0.62%     73.15% |       16129      0.63%     73.78% |       16122      0.63%     74.40% |       16132      0.63%     75.03% |       15818      0.61%     75.64% |       16071      0.62%     76.27% |       16085      0.62%     76.89% |       16159      0.63%     77.52% |       16096      0.63%     78.15% |       16185      0.63%     78.78% |       16240      0.63%     79.41% |       15929      0.62%     80.02% |       16227      0.63%     80.65% |       16095      0.63%     81.28% |       15840      0.62%     81.90% |       16122      0.63%     82.52% |       16191      0.63%     83.15% |       16110      0.63%     83.78% |       15879      0.62%     84.39% |       16128      0.63%     85.02% |       15858      0.62%     85.64% |       16049      0.62%     86.26% |       16078      0.62%     86.88% |       15884      0.62%     87.50% |       16115      0.63%     88.13% |       16082      0.62%     88.75% |       15891      0.62%     89.37% |       15970      0.62%     89.99% |       16095      0.63%     90.61% |       16013      0.62%     91.24% |       16121      0.63%     91.86% |       16136      0.63%     92.49% |       16003      0.62%     93.11% |       16088      0.62%     93.73% |       16097      0.63%     94.36% |       16003      0.62%     94.98% |       16167      0.63%     95.61% |       16110      0.63%     96.24% |       16160      0.63%     96.86% |       16185      0.63%     97.49% |       16244      0.63%     98.12% |       16283      0.63%     98.75% |       16092      0.63%     99.38% |       15968      0.62%    100.00% (Unspecified)
system.ruby.Directory_Controller.I.Receive_Request::total      2574603                       (Unspecified)
system.ruby.Directory_Controller.I.Receive_Response |       16187      0.63%      0.63% |       15618      0.61%      1.24% |       16446      0.64%      1.87% |       16130      0.63%      2.50% |       16105      0.63%      3.13% |       16063      0.62%      3.75% |       15990      0.62%      4.37% |       16089      0.62%      5.00% |       16170      0.63%      5.62% |       16277      0.63%      6.26% |       16286      0.63%      6.89% |       16277      0.63%      7.52% |       15975      0.62%      8.14% |       16093      0.62%      8.77% |       16116      0.63%      9.39% |       15948      0.62%     10.01% |       16038      0.62%     10.63% |       15946      0.62%     11.25% |       16065      0.62%     11.88% |       16008      0.62%     12.50% |       15993      0.62%     13.12% |       16158      0.63%     13.75% |       16158      0.63%     14.37% |       16234      0.63%     15.00% |       16149      0.63%     15.63% |       15999      0.62%     16.25% |       16185      0.63%     16.88% |       15985      0.62%     17.50% |       15977      0.62%     18.12% |       16042      0.62%     18.75% |       16158      0.63%     19.37% |       16001      0.62%     20.00% |       15945      0.62%     20.61% |       16068      0.62%     21.24% |       16214      0.63%     21.87% |       16153      0.63%     22.50% |       16028      0.62%     23.12% |       16250      0.63%     23.75% |       16038      0.62%     24.37% |       16186      0.63%     25.00% |       15963      0.62%     25.62% |       16147      0.63%     26.25% |       16064      0.62%     26.87% |       16049      0.62%     27.49% |       16345      0.63%     28.13% |       16133      0.63%     28.76% |       16196      0.63%     29.38% |       16080      0.62%     30.01% |       16180      0.63%     30.64% |       16041      0.62%     31.26% |       16174      0.63%     31.89% |       15923      0.62%     32.51% |       16118      0.63%     33.13% |       15910      0.62%     33.75% |       16144      0.63%     34.38% |       16283      0.63%     35.01% |       16135      0.63%     35.64% |       15958      0.62%     36.26% |       16142      0.63%     36.88% |       16207      0.63%     37.51% |       16050      0.62%     38.14% |       15915      0.62%     38.75% |       16028      0.62%     39.38% |       16491      0.64%     40.02% |       16070      0.62%     40.64% |       16243      0.63%     41.27% |       16081      0.62%     41.90% |       16102      0.63%     42.52% |       15985      0.62%     43.14% |       16051      0.62%     43.77% |       16249      0.63%     44.40% |       15933      0.62%     45.02% |       16109      0.63%     45.64% |       15967      0.62%     46.26% |       16172      0.63%     46.89% |       16014      0.62%     47.51% |       15977      0.62%     48.13% |       16074      0.62%     48.76% |       16092      0.62%     49.38% |       15906      0.62%     50.00% |       16179      0.63%     50.63% |       16085      0.62%     51.25% |       15970      0.62%     51.87% |       15950      0.62%     52.49% |       15825      0.61%     53.11% |       16257      0.63%     53.74% |       16238      0.63%     54.37% |       16218      0.63%     55.00% |       16146      0.63%     55.63% |       16254      0.63%     56.26% |       16102      0.63%     56.88% |       15988      0.62%     57.50% |       16256      0.63%     58.13% |       15956      0.62%     58.75% |       16093      0.62%     59.38% |       16197      0.63%     60.01% |       16137      0.63%     60.63% |       15977      0.62%     61.25% |       16172      0.63%     61.88% |       16130      0.63%     62.51% |       15970      0.62%     63.13% |       16193      0.63%     63.76% |       16139      0.63%     64.39% |       16088      0.62%     65.01% |       16031      0.62%     65.63% |       15953      0.62%     66.25% |       16207      0.63%     66.88% |       16094      0.63%     67.51% |       16146      0.63%     68.13% |       16072      0.62%     68.76% |       16051      0.62%     69.38% |       15937      0.62%     70.00% |       16194      0.63%     70.63% |       16132      0.63%     71.26% |       16087      0.62%     71.88% |       16100      0.63%     72.51% |       16047      0.62%     73.13% |       16188      0.63%     73.76% |       16058      0.62%     74.38% |       15979      0.62%     75.00% |       16150      0.63%     75.63% |       16069      0.62%     76.25% |       16231      0.63%     76.88% |       15950      0.62%     77.50% |       16063      0.62%     78.13% |       16048      0.62%     78.75% |       16098      0.63%     79.37% |       16218      0.63%     80.00% |       16343      0.63%     80.64% |       16257      0.63%     81.27% |       16036      0.62%     81.89% |       15792      0.61%     82.51% |       16113      0.63%     83.13% |       16376      0.64%     83.77% |       15773      0.61%     84.38% |       16096      0.63%     85.01% |       16034      0.62%     85.63% |       16006      0.62%     86.25% |       15871      0.62%     86.87% |       15882      0.62%     87.48% |       15884      0.62%     88.10% |       15974      0.62%     88.72% |       16146      0.63%     89.35% |       15998      0.62%     89.97% |       16057      0.62%     90.59% |       16005      0.62%     91.21% |       16199      0.63%     91.84% |       16289      0.63%     92.48% |       15966      0.62%     93.10% |       16089      0.62%     93.72% |       16245      0.63%     94.35% |       16366      0.64%     94.99% |       15903      0.62%     95.60% |       16233      0.63%     96.24% |       16198      0.63%     96.86% |       16074      0.62%     97.49% |       16091      0.62%     98.11% |       16315      0.63%     98.75% |       16154      0.63%     99.37% |       16111      0.63%    100.00% (Unspecified)
system.ruby.Directory_Controller.I.Receive_Response::total      2574948                       (Unspecified)
system.ruby.L1Cache_Controller.Request   |       64385      2.50%      2.50% |       64207      2.49%      4.99% |       63896      2.48%      7.48% |       64402      2.50%      9.98% |       64124      2.49%     12.47% |       64619      2.51%     14.98% |       64103      2.49%     17.47% |       64307      2.50%     19.97% |       64463      2.50%     22.47% |       64228      2.49%     24.96% |       64275      2.50%     27.46% |       64572      2.51%     29.97% |       64594      2.51%     32.48% |       64770      2.52%     34.99% |       64384      2.50%     37.49% |       64615      2.51%     40.00% |       64491      2.50%     42.51% |       64123      2.49%     45.00% |       64121      2.49%     47.49% |       64304      2.50%     49.99% |       64513      2.51%     52.49% |       63992      2.49%     54.98% |       64288      2.50%     57.48% |       64083      2.49%     59.96% |       64530      2.51%     62.47% |       64526      2.51%     64.98% |       64509      2.51%     67.48% |       64635      2.51%     69.99% |       64579      2.51%     72.50% |       64442      2.50%     75.00% |       64359      2.50%     77.50% |       64329      2.50%     80.00% |       64441      2.50%     82.51% |       64291      2.50%     85.00% |       64371      2.50%     87.50% |       64245      2.50%     90.00% |       64061      2.49%     92.49% |       63941      2.48%     94.97% |       64867      2.52%     97.49% |       64627      2.51%    100.00% (Unspecified)
system.ruby.L1Cache_Controller.Request::total      2574612                       (Unspecified)
system.ruby.L1Cache_Controller.Response  |       64824      2.52%      2.52% |       64140      2.49%      5.01% |       64623      2.51%      7.52% |       64093      2.49%     10.01% |       64611      2.51%     12.52% |       63849      2.48%     15.00% |       64379      2.50%     17.50% |       64094      2.49%     19.99% |       64822      2.52%     22.50% |       64494      2.50%     25.01% |       64419      2.50%     27.51% |       64509      2.51%     30.01% |       64493      2.50%     32.52% |       64176      2.49%     35.01% |       64245      2.49%     37.51% |       64445      2.50%     40.01% |       64700      2.51%     42.52% |       64250      2.50%     45.02% |       64255      2.50%     47.51% |       64135      2.49%     50.00% |       64615      2.51%     52.51% |       64249      2.50%     55.01% |       64896      2.52%     57.53% |       64001      2.49%     60.01% |       64512      2.51%     62.52% |       63894      2.48%     65.00% |       64341      2.50%     67.50% |       64332      2.50%     70.00% |       64624      2.51%     72.51% |       64013      2.49%     74.99% |       64576      2.51%     77.50% |       64237      2.49%     80.00% |       64484      2.50%     82.50% |       64283      2.50%     85.00% |       64446      2.50%     87.50% |       64485      2.50%     90.00% |       64120      2.49%     92.49% |       64278      2.50%     94.99% |       64716      2.51%     97.50% |       64298      2.50%    100.00% (Unspecified)
system.ruby.L1Cache_Controller.Response::total      2574956                       (Unspecified)
system.ruby.L1Cache_Controller.I.Request |       64385      2.50%      2.50% |       64207      2.49%      4.99% |       63896      2.48%      7.48% |       64402      2.50%      9.98% |       64124      2.49%     12.47% |       64619      2.51%     14.98% |       64103      2.49%     17.47% |       64307      2.50%     19.97% |       64463      2.50%     22.47% |       64228      2.49%     24.96% |       64275      2.50%     27.46% |       64572      2.51%     29.97% |       64594      2.51%     32.48% |       64770      2.52%     34.99% |       64384      2.50%     37.49% |       64615      2.51%     40.00% |       64491      2.50%     42.51% |       64123      2.49%     45.00% |       64121      2.49%     47.49% |       64304      2.50%     49.99% |       64513      2.51%     52.49% |       63992      2.49%     54.98% |       64288      2.50%     57.48% |       64083      2.49%     59.96% |       64530      2.51%     62.47% |       64526      2.51%     64.98% |       64509      2.51%     67.48% |       64635      2.51%     69.99% |       64579      2.51%     72.50% |       64442      2.50%     75.00% |       64359      2.50%     77.50% |       64329      2.50%     80.00% |       64441      2.50%     82.51% |       64291      2.50%     85.00% |       64371      2.50%     87.50% |       64245      2.50%     90.00% |       64061      2.49%     92.49% |       63941      2.48%     94.97% |       64867      2.52%     97.49% |       64627      2.51%    100.00% (Unspecified)
system.ruby.L1Cache_Controller.I.Request::total      2574612                       (Unspecified)
system.ruby.L1Cache_Controller.I.Response |       64824      2.52%      2.52% |       64140      2.49%      5.01% |       64623      2.51%      7.52% |       64093      2.49%     10.01% |       64611      2.51%     12.52% |       63849      2.48%     15.00% |       64379      2.50%     17.50% |       64094      2.49%     19.99% |       64822      2.52%     22.50% |       64494      2.50%     25.01% |       64419      2.50%     27.51% |       64509      2.51%     30.01% |       64493      2.50%     32.52% |       64176      2.49%     35.01% |       64245      2.49%     37.51% |       64445      2.50%     40.01% |       64700      2.51%     42.52% |       64250      2.50%     45.02% |       64255      2.50%     47.51% |       64135      2.49%     50.00% |       64615      2.51%     52.51% |       64249      2.50%     55.01% |       64896      2.52%     57.53% |       64001      2.49%     60.01% |       64512      2.51%     62.52% |       63894      2.48%     65.00% |       64341      2.50%     67.50% |       64332      2.50%     70.00% |       64624      2.51%     72.51% |       64013      2.49%     74.99% |       64576      2.51%     77.50% |       64237      2.49%     80.00% |       64484      2.50%     82.50% |       64283      2.50%     85.00% |       64446      2.50%     87.50% |       64485      2.50%     90.00% |       64120      2.49%     92.49% |       64278      2.50%     94.99% |       64716      2.51%     97.50% |       64298      2.50%    100.00% (Unspecified)
system.ruby.L1Cache_Controller.I.Response::total      2574956                       (Unspecified)
system.ruby.RequestType.LD.latency_hist_seqr::bucket_size            1                       (Unspecified)
system.ruby.RequestType.LD.latency_hist_seqr::max_bucket            9                       (Unspecified)
system.ruby.RequestType.LD.latency_hist_seqr::samples      2574612                       (Unspecified)
system.ruby.RequestType.LD.latency_hist_seqr::mean            1                       (Unspecified)
system.ruby.RequestType.LD.latency_hist_seqr::gmean            1                       (Unspecified)
system.ruby.RequestType.LD.latency_hist_seqr |           0      0.00%      0.00% |     2574612    100.00%    100.00% |           0      0.00%    100.00% |           0      0.00%    100.00% |           0      0.00%    100.00% |           0      0.00%    100.00% |           0      0.00%    100.00% |           0      0.00%    100.00% |           0      0.00%    100.00% |           0      0.00%    100.00% (Unspecified)
system.ruby.RequestType.LD.latency_hist_seqr::total      2574612                       (Unspecified)
system.ruby.RequestType.LD.hit_latency_hist_seqr::bucket_size            1                       (Unspecified)
system.ruby.RequestType.LD.hit_latency_hist_seqr::max_bucket            9                       (Unspecified)
system.ruby.RequestType.LD.hit_latency_hist_seqr::samples      2574612                       (Unspecified)
system.ruby.RequestType.LD.hit_latency_hist_seqr::mean            1                       (Unspecified)
system.ruby.RequestType.LD.hit_latency_hist_seqr::gmean            1                       (Unspecified)
system.ruby.RequestType.LD.hit_latency_hist_seqr |           0      0.00%      0.00% |     2574612    100.00%    100.00% |           0      0.00%    100.00% |           0      0.00%    100.00% |           0      0.00%    100.00% |           0      0.00%    100.00% |           0      0.00%    100.00% |           0      0.00%    100.00% |           0      0.00%    100.00% |           0      0.00%    100.00% (Unspecified)
system.ruby.RequestType.LD.hit_latency_hist_seqr::total      2574612                       (Unspecified)
system.ruby.RequestType.ST.latency_hist_seqr::bucket_size            1                       (Unspecified)
system.ruby.RequestType.ST.latency_hist_seqr::max_bucket            9                       (Unspecified)
system.ruby.RequestType.ST.latency_hist_seqr::samples      2574956                       (Unspecified)
system.ruby.RequestType.ST.latency_hist_seqr::mean            1                       (Unspecified)
system.ruby.RequestType.ST.latency_hist_seqr::gmean            1                       (Unspecified)
system.ruby.RequestType.ST.latency_hist_seqr |           0      0.00%      0.00% |     2574956    100.00%    100.00% |           0      0.00%    100.00% |           0      0.00%    100.00% |           0      0.00%    100.00% |           0      0.00%    100.00% |           0      0.00%    100.00% |           0      0.00%    100.00% |           0      0.00%    100.00% |           0      0.00%    100.00% (Unspecified)
system.ruby.RequestType.ST.latency_hist_seqr::total      2574956                       (Unspecified)
system.ruby.RequestType.ST.hit_latency_hist_seqr::bucket_size            1                       (Unspecified)
system.ruby.RequestType.ST.hit_latency_hist_seqr::max_bucket            9                       (Unspecified)
system.ruby.RequestType.ST.hit_latency_hist_seqr::samples      2574956                       (Unspecified)
system.ruby.RequestType.ST.hit_latency_hist_seqr::mean            1                       (Unspecified)
system.ruby.RequestType.ST.hit_latency_hist_seqr::gmean            1                       (Unspecified)
system.ruby.RequestType.ST.hit_latency_hist_seqr |           0      0.00%      0.00% |     2574956    100.00%    100.00% |           0      0.00%    100.00% |           0      0.00%    100.00% |           0      0.00%    100.00% |           0      0.00%    100.00% |           0      0.00%    100.00% |           0      0.00%    100.00% |           0      0.00%    100.00% |           0      0.00%    100.00% (Unspecified)
system.ruby.RequestType.ST.hit_latency_hist_seqr::total      2574956                       (Unspecified)
system.ruby.clk_domain.clock                      250                       # Clock period in ticks (Tick)
system.ruby.dir_cntrl0.power_state.pwrStateResidencyTicks::UNDEFINED   2147483750                       # Cumulative time (in ticks) in various power states (Tick)
system.ruby.dir_cntrl0.requestToDir.m_msg_count        16140                       # Number of messages passed the buffer (Count)
system.ruby.dir_cntrl0.requestToDir.m_buf_msgs     0.001879                       # Average number of messages in buffer ((Count/Tick))
system.ruby.dir_cntrl0.responseToDir.m_msg_count        16187                       # Number of messages passed the buffer (Count)
system.ruby.dir_cntrl0.responseToDir.m_buf_msgs     0.001884                       # Average number of messages in buffer ((Count/Tick))
system.ruby.dir_cntrl1.power_state.pwrStateResidencyTicks::UNDEFINED   2147483750                       # Cumulative time (in ticks) in various power states (Tick)
system.ruby.dir_cntrl1.requestToDir.m_msg_count        16088                       # Number of messages passed the buffer (Count)
system.ruby.dir_cntrl1.requestToDir.m_buf_msgs     0.001873                       # Average number of messages in buffer ((Count/Tick))
system.ruby.dir_cntrl1.responseToDir.m_msg_count        15618                       # Number of messages passed the buffer (Count)
system.ruby.dir_cntrl1.responseToDir.m_buf_msgs     0.001818                       # Average number of messages in buffer ((Count/Tick))
system.ruby.dir_cntrl10.power_state.pwrStateResidencyTicks::UNDEFINED   2147483750                       # Cumulative time (in ticks) in various power states (Tick)
system.ruby.dir_cntrl10.requestToDir.m_msg_count        15977                       # Number of messages passed the buffer (Count)
system.ruby.dir_cntrl10.requestToDir.m_buf_msgs     0.001860                       # Average number of messages in buffer ((Count/Tick))
system.ruby.dir_cntrl10.responseToDir.m_msg_count        16286                       # Number of messages passed the buffer (Count)
system.ruby.dir_cntrl10.responseToDir.m_buf_msgs     0.001896                       # Average number of messages in buffer ((Count/Tick))
system.ruby.dir_cntrl100.power_state.pwrStateResidencyTicks::UNDEFINED   2147483750                       # Cumulative time (in ticks) in various power states (Tick)
system.ruby.dir_cntrl100.requestToDir.m_msg_count        16134                       # Number of messages passed the buffer (Count)
system.ruby.dir_cntrl100.requestToDir.m_buf_msgs     0.001878                       # Average number of messages in buffer ((Count/Tick))
system.ruby.dir_cntrl100.responseToDir.m_msg_count        15970                       # Number of messages passed the buffer (Count)
system.ruby.dir_cntrl100.responseToDir.m_buf_msgs     0.001859                       # Average number of messages in buffer ((Count/Tick))
system.ruby.dir_cntrl101.power_state.pwrStateResidencyTicks::UNDEFINED   2147483750                       # Cumulative time (in ticks) in various power states (Tick)
system.ruby.dir_cntrl101.requestToDir.m_msg_count        16048                       # Number of messages passed the buffer (Count)
system.ruby.dir_cntrl101.requestToDir.m_buf_msgs     0.001868                       # Average number of messages in buffer ((Count/Tick))
system.ruby.dir_cntrl101.responseToDir.m_msg_count        16193                       # Number of messages passed the buffer (Count)
system.ruby.dir_cntrl101.responseToDir.m_buf_msgs     0.001885                       # Average number of messages in buffer ((Count/Tick))
system.ruby.dir_cntrl102.power_state.pwrStateResidencyTicks::UNDEFINED   2147483750                       # Cumulative time (in ticks) in various power states (Tick)
system.ruby.dir_cntrl102.requestToDir.m_msg_count        16201                       # Number of messages passed the buffer (Count)
system.ruby.dir_cntrl102.requestToDir.m_buf_msgs     0.001886                       # Average number of messages in buffer ((Count/Tick))
system.ruby.dir_cntrl102.responseToDir.m_msg_count        16139                       # Number of messages passed the buffer (Count)
system.ruby.dir_cntrl102.responseToDir.m_buf_msgs     0.001879                       # Average number of messages in buffer ((Count/Tick))
system.ruby.dir_cntrl103.power_state.pwrStateResidencyTicks::UNDEFINED   2147483750                       # Cumulative time (in ticks) in various power states (Tick)
system.ruby.dir_cntrl103.requestToDir.m_msg_count        16274                       # Number of messages passed the buffer (Count)
system.ruby.dir_cntrl103.requestToDir.m_buf_msgs     0.001895                       # Average number of messages in buffer ((Count/Tick))
system.ruby.dir_cntrl103.responseToDir.m_msg_count        16088                       # Number of messages passed the buffer (Count)
system.ruby.dir_cntrl103.responseToDir.m_buf_msgs     0.001873                       # Average number of messages in buffer ((Count/Tick))
system.ruby.dir_cntrl104.power_state.pwrStateResidencyTicks::UNDEFINED   2147483750                       # Cumulative time (in ticks) in various power states (Tick)
system.ruby.dir_cntrl104.requestToDir.m_msg_count        16239                       # Number of messages passed the buffer (Count)
system.ruby.dir_cntrl104.requestToDir.m_buf_msgs     0.001890                       # Average number of messages in buffer ((Count/Tick))
system.ruby.dir_cntrl104.responseToDir.m_msg_count        16031                       # Number of messages passed the buffer (Count)
system.ruby.dir_cntrl104.responseToDir.m_buf_msgs     0.001866                       # Average number of messages in buffer ((Count/Tick))
system.ruby.dir_cntrl105.power_state.pwrStateResidencyTicks::UNDEFINED   2147483750                       # Cumulative time (in ticks) in various power states (Tick)
system.ruby.dir_cntrl105.requestToDir.m_msg_count        16067                       # Number of messages passed the buffer (Count)
system.ruby.dir_cntrl105.requestToDir.m_buf_msgs     0.001870                       # Average number of messages in buffer ((Count/Tick))
system.ruby.dir_cntrl105.responseToDir.m_msg_count        15953                       # Number of messages passed the buffer (Count)
system.ruby.dir_cntrl105.responseToDir.m_buf_msgs     0.001857                       # Average number of messages in buffer ((Count/Tick))
system.ruby.dir_cntrl106.power_state.pwrStateResidencyTicks::UNDEFINED   2147483750                       # Cumulative time (in ticks) in various power states (Tick)
system.ruby.dir_cntrl106.requestToDir.m_msg_count        16054                       # Number of messages passed the buffer (Count)
system.ruby.dir_cntrl106.requestToDir.m_buf_msgs     0.001869                       # Average number of messages in buffer ((Count/Tick))
system.ruby.dir_cntrl106.responseToDir.m_msg_count        16207                       # Number of messages passed the buffer (Count)
system.ruby.dir_cntrl106.responseToDir.m_buf_msgs     0.001887                       # Average number of messages in buffer ((Count/Tick))
system.ruby.dir_cntrl107.power_state.pwrStateResidencyTicks::UNDEFINED   2147483750                       # Cumulative time (in ticks) in various power states (Tick)
system.ruby.dir_cntrl107.requestToDir.m_msg_count        15851                       # Number of messages passed the buffer (Count)
system.ruby.dir_cntrl107.requestToDir.m_buf_msgs     0.001845                       # Average number of messages in buffer ((Count/Tick))
system.ruby.dir_cntrl107.responseToDir.m_msg_count        16094                       # Number of messages passed the buffer (Count)
system.ruby.dir_cntrl107.responseToDir.m_buf_msgs     0.001874                       # Average number of messages in buffer ((Count/Tick))
system.ruby.dir_cntrl108.power_state.pwrStateResidencyTicks::UNDEFINED   2147483750                       # Cumulative time (in ticks) in various power states (Tick)
system.ruby.dir_cntrl108.requestToDir.m_msg_count        15949                       # Number of messages passed the buffer (Count)
system.ruby.dir_cntrl108.requestToDir.m_buf_msgs     0.001857                       # Average number of messages in buffer ((Count/Tick))
system.ruby.dir_cntrl108.responseToDir.m_msg_count        16146                       # Number of messages passed the buffer (Count)
system.ruby.dir_cntrl108.responseToDir.m_buf_msgs     0.001880                       # Average number of messages in buffer ((Count/Tick))
system.ruby.dir_cntrl109.power_state.pwrStateResidencyTicks::UNDEFINED   2147483750                       # Cumulative time (in ticks) in various power states (Tick)
system.ruby.dir_cntrl109.requestToDir.m_msg_count        16227                       # Number of messages passed the buffer (Count)
system.ruby.dir_cntrl109.requestToDir.m_buf_msgs     0.001889                       # Average number of messages in buffer ((Count/Tick))
system.ruby.dir_cntrl109.responseToDir.m_msg_count        16072                       # Number of messages passed the buffer (Count)
system.ruby.dir_cntrl109.responseToDir.m_buf_msgs     0.001871                       # Average number of messages in buffer ((Count/Tick))
system.ruby.dir_cntrl11.power_state.pwrStateResidencyTicks::UNDEFINED   2147483750                       # Cumulative time (in ticks) in various power states (Tick)
system.ruby.dir_cntrl11.requestToDir.m_msg_count        15932                       # Number of messages passed the buffer (Count)
system.ruby.dir_cntrl11.requestToDir.m_buf_msgs     0.001855                       # Average number of messages in buffer ((Count/Tick))
system.ruby.dir_cntrl11.responseToDir.m_msg_count        16277                       # Number of messages passed the buffer (Count)
[...]
system.ruby.network.sankey.vcvn13.vcvn5             0                       (Unspecified)
system.ruby.network.sankey.vcvn13.vcvn6             0                       (Unspecified)
system.ruby.network.sankey.vcvn13.vcvn7             0                       (Unspecified)
system.ruby.network.sankey.vcvn13.vcvn8             0                       (Unspecified)
system.ruby.network.sankey.vcvn13.vcvn9             0                       (Unspecified)
system.ruby.network.sankey.vcvn14.vcvn0             0                       (Unspecified)
system.ruby.network.sankey.vcvn14.vcvn1             0                       (Unspecified)
system.ruby.network.sankey.vcvn14.vcvn10            0                       (Unspecified)
system.ruby.network.sankey.vcvn14.vcvn11            0                       (Unspecified)
system.ruby.network.sankey.vcvn14.vcvn12            0                       (Unspecified)
system.ruby.network.sankey.vcvn14.vcvn13            0                       (Unspecified)
system.ruby.network.sankey.vcvn14.vcvn14      3488485                       (Unspecified)
system.ruby.network.sankey.vcvn14.vcvn15            0                       (Unspecified)
system.ruby.network.sankey.vcvn14.vcvn16            0                       (Unspecified)
system.ruby.network.sankey.vcvn14.vcvn17            0                       (Unspecified)
system.ruby.network.sankey.vcvn14.vcvn2             0                       (Unspecified)
system.ruby.network.sankey.vcvn14.vcvn3             0                       (Unspecified)
system.ruby.network.sankey.vcvn14.vcvn4             0                       (Unspecified)
system.ruby.network.sankey.vcvn14.vcvn5             0                       (Unspecified)
system.ruby.network.sankey.vcvn14.vcvn6             0                       (Unspecified)
system.ruby.network.sankey.vcvn14.vcvn7             0                       (Unspecified)
system.ruby.network.sankey.vcvn14.vcvn8             0                       (Unspecified)
system.ruby.network.sankey.vcvn14.vcvn9             0                       (Unspecified)
system.ruby.network.sankey.vcvn15.vcvn0             0                       (Unspecified)
system.ruby.network.sankey.vcvn15.vcvn1             0                       (Unspecified)
system.ruby.network.sankey.vcvn15.vcvn10            0                       (Unspecified)
system.ruby.network.sankey.vcvn15.vcvn11            0                       (Unspecified)
system.ruby.network.sankey.vcvn15.vcvn12            0                       (Unspecified)
system.ruby.network.sankey.vcvn15.vcvn13            0                       (Unspecified)
system.ruby.network.sankey.vcvn15.vcvn14            0                       (Unspecified)
system.ruby.network.sankey.vcvn15.vcvn15      1871320                       (Unspecified)
system.ruby.network.sankey.vcvn15.vcvn16            0                       (Unspecified)
system.ruby.network.sankey.vcvn15.vcvn17            0                       (Unspecified)
system.ruby.network.sankey.vcvn15.vcvn2             0                       (Unspecified)
system.ruby.network.sankey.vcvn15.vcvn3             0                       (Unspecified)
system.ruby.network.sankey.vcvn15.vcvn4             0                       (Unspecified)
system.ruby.network.sankey.vcvn15.vcvn5             0                       (Unspecified)
system.ruby.network.sankey.vcvn15.vcvn6             0                       (Unspecified)
system.ruby.network.sankey.vcvn15.vcvn7             0                       (Unspecified)
system.ruby.network.sankey.vcvn15.vcvn8             0                       (Unspecified)
system.ruby.network.sankey.vcvn15.vcvn9             0                       (Unspecified)
system.ruby.network.sankey.vcvn16.vcvn0             0                       (Unspecified)
system.ruby.network.sankey.vcvn16.vcvn1             0                       (Unspecified)
system.ruby.network.sankey.vcvn16.vcvn10            0                       (Unspecified)
system.ruby.network.sankey.vcvn16.vcvn11            0                       (Unspecified)
system.ruby.network.sankey.vcvn16.vcvn12            0                       (Unspecified)
system.ruby.network.sankey.vcvn16.vcvn13            0                       (Unspecified)
system.ruby.network.sankey.vcvn16.vcvn14            0                       (Unspecified)
system.ruby.network.sankey.vcvn16.vcvn15            0                       (Unspecified)
system.ruby.network.sankey.vcvn16.vcvn16      2203535                       (Unspecified)
system.ruby.network.sankey.vcvn16.vcvn17            0                       (Unspecified)
system.ruby.network.sankey.vcvn16.vcvn2             0                       (Unspecified)
system.ruby.network.sankey.vcvn16.vcvn3             0                       (Unspecified)
system.ruby.network.sankey.vcvn16.vcvn4             0                       (Unspecified)
system.ruby.network.sankey.vcvn16.vcvn5             0                       (Unspecified)
system.ruby.network.sankey.vcvn16.vcvn6             0                       (Unspecified)
system.ruby.network.sankey.vcvn16.vcvn7             0                       (Unspecified)
system.ruby.network.sankey.vcvn16.vcvn8             0                       (Unspecified)
system.ruby.network.sankey.vcvn16.vcvn9             0                       (Unspecified)
system.ruby.network.sankey.vcvn17.vcvn0             0                       (Unspecified)
system.ruby.network.sankey.vcvn17.vcvn1             0                       (Unspecified)
system.ruby.network.sankey.vcvn17.vcvn10            0                       (Unspecified)
system.ruby.network.sankey.vcvn17.vcvn11            0                       (Unspecified)
system.ruby.network.sankey.vcvn17.vcvn12            0                       (Unspecified)
system.ruby.network.sankey.vcvn17.vcvn13            0                       (Unspecified)
system.ruby.network.sankey.vcvn17.vcvn14            0                       (Unspecified)
system.ruby.network.sankey.vcvn17.vcvn15            0                       (Unspecified)
system.ruby.network.sankey.vcvn17.vcvn16            0                       (Unspecified)
system.ruby.network.sankey.vcvn17.vcvn17      1525060                       (Unspecified)
system.ruby.network.sankey.vcvn17.vcvn2             0                       (Unspecified)
system.ruby.network.sankey.vcvn17.vcvn3             0                       (Unspecified)
system.ruby.network.sankey.vcvn17.vcvn4             0                       (Unspecified)
system.ruby.network.sankey.vcvn17.vcvn5             0                       (Unspecified)
system.ruby.network.sankey.vcvn17.vcvn6             0                       (Unspecified)
system.ruby.network.sankey.vcvn17.vcvn7             0                       (Unspecified)
system.ruby.network.sankey.vcvn17.vcvn8             0                       (Unspecified)
system.ruby.network.sankey.vcvn17.vcvn9             0                       (Unspecified)
system.ruby.network.sankey.vcvn2.vcvn0              0                       (Unspecified)
system.ruby.network.sankey.vcvn2.vcvn1              0                       (Unspecified)
system.ruby.network.sankey.vcvn2.vcvn10             0                       (Unspecified)
system.ruby.network.sankey.vcvn2.vcvn11             0                       (Unspecified)
system.ruby.network.sankey.vcvn2.vcvn12             0                       (Unspecified)
system.ruby.network.sankey.vcvn2.vcvn13             0                       (Unspecified)
system.ruby.network.sankey.vcvn2.vcvn14             0                       (Unspecified)
system.ruby.network.sankey.vcvn2.vcvn15             0                       (Unspecified)
system.ruby.network.sankey.vcvn2.vcvn16             0                       (Unspecified)
system.ruby.network.sankey.vcvn2.vcvn17             0                       (Unspecified)
system.ruby.network.sankey.vcvn2.vcvn2         728651                       (Unspecified)
system.ruby.network.sankey.vcvn2.vcvn3              0                       (Unspecified)
system.ruby.network.sankey.vcvn2.vcvn4              0                       (Unspecified)
system.ruby.network.sankey.vcvn2.vcvn5              0                       (Unspecified)
system.ruby.network.sankey.vcvn2.vcvn6              0                       (Unspecified)
system.ruby.network.sankey.vcvn2.vcvn7              0                       (Unspecified)
system.ruby.network.sankey.vcvn2.vcvn8              0                       (Unspecified)
system.ruby.network.sankey.vcvn2.vcvn9              0                       (Unspecified)
system.ruby.network.sankey.vcvn3.vcvn0              0                       (Unspecified)
system.ruby.network.sankey.vcvn3.vcvn1              0                       (Unspecified)
system.ruby.network.sankey.vcvn3.vcvn10             0                       (Unspecified)
system.ruby.network.sankey.vcvn3.vcvn11             0                       (Unspecified)
system.ruby.network.sankey.vcvn3.vcvn12             0                       (Unspecified)
system.ruby.network.sankey.vcvn3.vcvn13             0                       (Unspecified)
system.ruby.network.sankey.vcvn3.vcvn14             0                       (Unspecified)
system.ruby.network.sankey.vcvn3.vcvn15             0                       (Unspecified)
system.ruby.network.sankey.vcvn3.vcvn16             0                       (Unspecified)
system.ruby.network.sankey.vcvn3.vcvn17             0                       (Unspecified)
system.ruby.network.sankey.vcvn3.vcvn2              0                       (Unspecified)
system.ruby.network.sankey.vcvn3.vcvn3         382440                       (Unspecified)
system.ruby.network.sankey.vcvn3.vcvn4              0                       (Unspecified)
system.ruby.network.sankey.vcvn3.vcvn5              0                       (Unspecified)
system.ruby.network.sankey.vcvn3.vcvn6              0                       (Unspecified)
system.ruby.network.sankey.vcvn3.vcvn7              0                       (Unspecified)
system.ruby.network.sankey.vcvn3.vcvn8              0                       (Unspecified)
system.ruby.network.sankey.vcvn3.vcvn9              0                       (Unspecified)
system.ruby.network.sankey.vcvn4.vcvn0              0                       (Unspecified)
system.ruby.network.sankey.vcvn4.vcvn1              0                       (Unspecified)
system.ruby.network.sankey.vcvn4.vcvn10             0                       (Unspecified)
system.ruby.network.sankey.vcvn4.vcvn11             0                       (Unspecified)
system.ruby.network.sankey.vcvn4.vcvn12             0                       (Unspecified)
system.ruby.network.sankey.vcvn4.vcvn13             0                       (Unspecified)
system.ruby.network.sankey.vcvn4.vcvn14             0                       (Unspecified)
system.ruby.network.sankey.vcvn4.vcvn15             0                       (Unspecified)
system.ruby.network.sankey.vcvn4.vcvn16             0                       (Unspecified)
system.ruby.network.sankey.vcvn4.vcvn17             0                       (Unspecified)
system.ruby.network.sankey.vcvn4.vcvn2              0                       (Unspecified)
system.ruby.network.sankey.vcvn4.vcvn3              0                       (Unspecified)
system.ruby.network.sankey.vcvn4.vcvn4         457624                       (Unspecified)
system.ruby.network.sankey.vcvn4.vcvn5              0                       (Unspecified)
system.ruby.network.sankey.vcvn4.vcvn6              0                       (Unspecified)
system.ruby.network.sankey.vcvn4.vcvn7              0                       (Unspecified)
system.ruby.network.sankey.vcvn4.vcvn8              0                       (Unspecified)
system.ruby.network.sankey.vcvn4.vcvn9              0                       (Unspecified)
system.ruby.network.sankey.vcvn5.vcvn0              0                       (Unspecified)
system.ruby.network.sankey.vcvn5.vcvn1              0                       (Unspecified)
system.ruby.network.sankey.vcvn5.vcvn10             0                       (Unspecified)
system.ruby.network.sankey.vcvn5.vcvn11             0                       (Unspecified)
system.ruby.network.sankey.vcvn5.vcvn12             0                       (Unspecified)
system.ruby.network.sankey.vcvn5.vcvn13             0                       (Unspecified)
system.ruby.network.sankey.vcvn5.vcvn14             0                       (Unspecified)
system.ruby.network.sankey.vcvn5.vcvn15             0                       (Unspecified)
system.ruby.network.sankey.vcvn5.vcvn16             0                       (Unspecified)
system.ruby.network.sankey.vcvn5.vcvn17             0                       (Unspecified)
system.ruby.network.sankey.vcvn5.vcvn2              0                       (Unspecified)
system.ruby.network.sankey.vcvn5.vcvn3              0                       (Unspecified)
system.ruby.network.sankey.vcvn5.vcvn4              0                       (Unspecified)
system.ruby.network.sankey.vcvn5.vcvn5         305146                       (Unspecified)
system.ruby.network.sankey.vcvn5.vcvn6              0                       (Unspecified)
system.ruby.network.sankey.vcvn5.vcvn7              0                       (Unspecified)
system.ruby.network.sankey.vcvn5.vcvn8              0                       (Unspecified)
system.ruby.network.sankey.vcvn5.vcvn9              0                       (Unspecified)
system.ruby.network.sankey.vcvn6.vcvn0              0                       (Unspecified)
system.ruby.network.sankey.vcvn6.vcvn1              0                       (Unspecified)
system.ruby.network.sankey.vcvn6.vcvn10             0                       (Unspecified)
system.ruby.network.sankey.vcvn6.vcvn11             0                       (Unspecified)
system.ruby.network.sankey.vcvn6.vcvn12             0                       (Unspecified)
system.ruby.network.sankey.vcvn6.vcvn13             0                       (Unspecified)
system.ruby.network.sankey.vcvn6.vcvn14             0                       (Unspecified)
system.ruby.network.sankey.vcvn6.vcvn15             0                       (Unspecified)
system.ruby.network.sankey.vcvn6.vcvn16             0                       (Unspecified)
system.ruby.network.sankey.vcvn6.vcvn17             0                       (Unspecified)
system.ruby.network.sankey.vcvn6.vcvn2              0                       (Unspecified)
system.ruby.network.sankey.vcvn6.vcvn3              0                       (Unspecified)
system.ruby.network.sankey.vcvn6.vcvn4              0                       (Unspecified)
system.ruby.network.sankey.vcvn6.vcvn5              0                       (Unspecified)
system.ruby.network.sankey.vcvn6.vcvn6              0                       (Unspecified)
system.ruby.network.sankey.vcvn6.vcvn7              0                       (Unspecified)
system.ruby.network.sankey.vcvn6.vcvn8              0                       (Unspecified)
system.ruby.network.sankey.vcvn6.vcvn9              0                       (Unspecified)
system.ruby.network.sankey.vcvn7.vcvn0              0                       (Unspecified)
system.ruby.network.sankey.vcvn7.vcvn1              0                       (Unspecified)
system.ruby.network.sankey.vcvn7.vcvn10             0                       (Unspecified)
system.ruby.network.sankey.vcvn7.vcvn11             0                       (Unspecified)
system.ruby.network.sankey.vcvn7.vcvn12             0                       (Unspecified)
system.ruby.network.sankey.vcvn7.vcvn13             0                       (Unspecified)
system.ruby.network.sankey.vcvn7.vcvn14             0                       (Unspecified)
system.ruby.network.sankey.vcvn7.vcvn15             0                       (Unspecified)
system.ruby.network.sankey.vcvn7.vcvn16             0                       (Unspecified)
system.ruby.network.sankey.vcvn7.vcvn17             0                       (Unspecified)
system.ruby.network.sankey.vcvn7.vcvn2              0                       (Unspecified)
system.ruby.network.sankey.vcvn7.vcvn3              0                       (Unspecified)
system.ruby.network.sankey.vcvn7.vcvn4              0                       (Unspecified)
system.ruby.network.sankey.vcvn7.vcvn5              0                       (Unspecified)
system.ruby.network.sankey.vcvn7.vcvn6              0                       (Unspecified)
system.ruby.network.sankey.vcvn7.vcvn7              0                       (Unspecified)
system.ruby.network.sankey.vcvn7.vcvn8              0                       (Unspecified)
system.ruby.network.sankey.vcvn7.vcvn9              0                       (Unspecified)
system.ruby.network.sankey.vcvn8.vcvn0              0                       (Unspecified)
system.ruby.network.sankey.vcvn8.vcvn1              0                       (Unspecified)
system.ruby.network.sankey.vcvn8.vcvn10             0                       (Unspecified)
system.ruby.network.sankey.vcvn8.vcvn11             0                       (Unspecified)
system.ruby.network.sankey.vcvn8.vcvn12             0                       (Unspecified)
system.ruby.network.sankey.vcvn8.vcvn13             0                       (Unspecified)
system.ruby.network.sankey.vcvn8.vcvn14             0                       (Unspecified)
system.ruby.network.sankey.vcvn8.vcvn15             0                       (Unspecified)
system.ruby.network.sankey.vcvn8.vcvn16             0                       (Unspecified)
system.ruby.network.sankey.vcvn8.vcvn17             0                       (Unspecified)
system.ruby.network.sankey.vcvn8.vcvn2              0                       (Unspecified)
system.ruby.network.sankey.vcvn8.vcvn3              0                       (Unspecified)
system.ruby.network.sankey.vcvn8.vcvn4              0                       (Unspecified)
system.ruby.network.sankey.vcvn8.vcvn5              0                       (Unspecified)
system.ruby.network.sankey.vcvn8.vcvn6              0                       (Unspecified)
system.ruby.network.sankey.vcvn8.vcvn7              0                       (Unspecified)
system.ruby.network.sankey.vcvn8.vcvn8              0                       (Unspecified)
system.ruby.network.sankey.vcvn8.vcvn9              0                       (Unspecified)
system.ruby.network.sankey.vcvn9.vcvn0              0                       (Unspecified)
system.ruby.network.sankey.vcvn9.vcvn1              0                       (Unspecified)
system.ruby.network.sankey.vcvn9.vcvn10             0                       (Unspecified)
system.ruby.network.sankey.vcvn9.vcvn11             0                       (Unspecified)
system.ruby.network.sankey.vcvn9.vcvn12             0                       (Unspecified)
system.ruby.network.sankey.vcvn9.vcvn13             0                       (Unspecified)
system.ruby.network.sankey.vcvn9.vcvn14             0                       (Unspecified)
system.ruby.network.sankey.vcvn9.vcvn15             0                       (Unspecified)
system.ruby.network.sankey.vcvn9.vcvn16             0                       (Unspecified)
system.ruby.network.sankey.vcvn9.vcvn17             0                       (Unspecified)
system.ruby.network.sankey.vcvn9.vcvn2              0                       (Unspecified)
system.ruby.network.sankey.vcvn9.vcvn3              0                       (Unspecified)
system.ruby.network.sankey.vcvn9.vcvn4              0                       (Unspecified)
system.ruby.network.sankey.vcvn9.vcvn5              0                       (Unspecified)
system.ruby.network.sankey.vcvn9.vcvn6              0                       (Unspecified)
system.ruby.network.sankey.vcvn9.vcvn7              0                       (Unspecified)
system.ruby.network.sankey.vcvn9.vcvn8              0                       (Unspecified)
system.ruby.network.sankey.vcvn9.vcvn9              0                       (Unspecified)

---------- End Simulation Statistics   ----------
