
---------- Begin Simulation Statistics ----------
simSeconds                                   0.002147                       # Number of seconds simulated (Second)
simTicks                                   2147483750                       # Number of ticks simulated (Tick)
finalTick                                  2147483750                       # Number of ticks from beginning of simulation (restored from checkpoints and never reset) (Tick)
simFreq                                  1000000000000                       # The number of ticks per simulated second ((Tick/Second))
hostSeconds                                  21876.98                       # Real time elapsed on the host (Second)
hostTickRate                                    98162                       # The number of ticks simulated per host second (ticks/s) ((Tick/Second))
hostMemory                                   40371516                       # Number of bytes of host memory used (Byte)
system.clk_domain.clock                           250                       # Clock period in ticks (Tick)
system.cpu0.power_state.pwrStateResidencyTicks::UNDEFINED   2147483750                       # Cumulative time (in ticks) in various power states (Tick)
system.cpu1.power_state.pwrStateResidencyTicks::UNDEFINED   2147483750                       # Cumulative time (in ticks) in various power states (Tick)
system.cpu10.power_state.pwrStateResidencyTicks::UNDEFINED   2147483750                       # Cumulative time (in ticks) in various power states (Tick)
system.cpu11.power_state.pwrStateResidencyTicks::UNDEFINED   2147483750                       # Cumulative time (in ticks) in various power states (Tick)
system.cpu12.power_state.pwrStateResidencyTicks::UNDEFINED   2147483750                       # Cumulative time (in ticks) in various power states (Tick)
system.cpu13.power_state.pwrStateResidencyTicks::UNDEFINED   2147483750                       # Cumulative time (in ticks) in various power states (Tick)
system.cpu14.power_state.pwrStateResidencyTicks::UNDEFINED   2147483750                       # Cumulative time (in ticks) in various power states (Tick)
system.cpu15.power_state.pwrStateResidencyTicks::UNDEFINED   2147483750                       # Cumulative time (in ticks) in various power states (Tick)
system.cpu16.power_state.pwrStateResidencyTicks::UNDEFINED   2147483750                       # Cumulative time (in ticks) in various power states (Tick)
system.cpu17.power_state.pwrStateResidencyTicks::UNDEFINED   2147483750                       # Cumulative time (in ticks) in various power states (Tick)
system.cpu18.power_state.pwrStateResidencyTicks::UNDEFINED   2147483750                       # Cumulative time (in ticks) in various power states (Tick)
system.cpu19.power_state.pwrStateResidencyTicks::UNDEFINED   2147483750                       # Cumulative time (in ticks) in various power states (Tick)
system.cpu2.power_state.pwrStateResidencyTicks::UNDEFINED   2147483750                       # Cumulative time (in ticks) in various power states (Tick)
system.cpu20.power_state.pwrStateResidencyTicks::UNDEFINED   2147483750                       # Cumulative time (in ticks) in various power states (Tick)
system.cpu21.power_state.pwrStateResidencyTicks::UNDEFINED   2147483750                       # Cumulative time (in ticks) in various power states (Tick)
system.cpu22.power_state.pwrStateResidencyTicks::UNDEFINED   2147483750                       # Cumulative time (in ticks) in various power states (Tick)
system.cpu23.power_state.pwrStateResidencyTicks::UNDEFINED   2147483750                       # Cumulative time (in ticks) in various power states (Tick)
system.cpu24.power_state.pwrStateResidencyTicks::UNDEFINED   2147483750                       # Cumulative time (in ticks) in various power states (Tick)
system.cpu25.power_state.pwrStateResidencyTicks::UNDEFINED   2147483750                       # Cumulative time (in ticks) in various power states (Tick)
system.cpu26.power_state.pwrStateResidencyTicks::UNDEFINED   2147483750                       # Cumulative time (in ticks) in various power states (Tick)
system.cpu27.power_state.pwrStateResidencyTicks::UNDEFINED   2147483750                       # Cumulative time (in ticks) in various power states (Tick)
system.cpu28.power_state.pwrStateResidencyTicks::UNDEFINED   2147483750                       # Cumulative time (in ticks) in various power states (Tick)
system.cpu29.power_state.pwrStateResidencyTicks::UNDEFINED   2147483750                       # Cumulative time (in ticks) in various power states (Tick)
system.cpu3.power_state.pwrStateResidencyTicks::UNDEFINED   2147483750                       # Cumulative time (in ticks) in various power states (Tick)
system.cpu30.power_state.pwrStateResidencyTicks::UNDEFINED   2147483750                       # Cumulative time (in ticks) in various power states (Tick)
system.cpu31.power_state.pwrStateResidencyTicks::UNDEFINED   2147483750                       # Cumulative time (in ticks) in various power states (Tick)
system.cpu32.power_state.pwrStateResidencyTicks::UNDEFINED   2147483750                       # Cumulative time (in ticks) in various power states (Tick)
system.cpu33.power_state.pwrStateResidencyTicks::UNDEFINED   2147483750                       # Cumulative time (in ticks) in various power states (Tick)
system.cpu34.power_state.pwrStateResidencyTicks::UNDEFINED   2147483750                       # Cumulative time (in ticks) in various power states (Tick)
system.cpu35.power_state.pwrStateResidencyTicks::UNDEFINED   2147483750                       # Cumulative time (in ticks) in various power states (Tick)
system.cpu36.power_state.pwrStateResidencyTicks::UNDEFINED   2147483750                       # Cumulative time (in ticks) in various power states (Tick)
system.cpu37.power_state.pwrStateResidencyTicks::UNDEFINED   2147483750                       # Cumulative time (in ticks) in various power states (Tick)
system.cpu38.power_state.pwrStateResidencyTicks::UNDEFINED   2147483750                       # Cumulative time (in ticks) in various power states (Tick)
system.cpu39.power_state.pwrStateResidencyTicks::UNDEFINED   2147483750                       # Cumulative time (in ticks) in various power states (Tick)
system.cpu4.power_state.pwrStateResidencyTicks::UNDEFINED   2147483750                       # Cumulative time (in ticks) in various power states (Tick)
system.cpu40.power_state.pwrStateResidencyTicks::UNDEFINED   2147483750                       # Cumulative time (in ticks) in various power states (Tick)
system.cpu41.power_state.pwrStateResidencyTicks::UNDEFINED   2147483750                       # Cumulative time (in ticks) in various power states (Tick)
system.cpu42.power_state.pwrStateResidencyTicks::UNDEFINED   2147483750                       # Cumulative time (in ticks) in various power states (Tick)
system.cpu43.power_state.pwrStateResidencyTicks::UNDEFINED   2147483750                       # Cumulative time (in ticks) in various power states (Tick)
system.cpu44.power_state.pwrStateResidencyTicks::UNDEFINED   2147483750                       # Cumulative time (in ticks) in various power states (Tick)
system.cpu45.power_state.pwrStateResidencyTicks::UNDEFINED   2147483750                       # Cumulative time (in ticks) in various power states (Tick)
system.cpu46.power_state.pwrStateResidencyTicks::UNDEFINED   2147483750                       # Cumulative time (in ticks) in various power states (Tick)
system.cpu47.power_state.pwrStateResidencyTicks::UNDEFINED   2147483750                       # Cumulative time (in ticks) in various power states (Tick)
system.cpu48.power_state.pwrStateResidencyTicks::UNDEFINED   2147483750                       # Cumulative time (in ticks) in various power states (Tick)
system.cpu49.power_state.pwrStateResidencyTicks::UNDEFINED   2147483750                       # Cumulative time (in ticks) in various power states (Tick)
system.cpu5.power_state.pwrStateResidencyTicks::UNDEFINED   2147483750                       # Cumulative time (in ticks) in various power states (Tick)
system.cpu50.power_state.pwrStateResidencyTicks::UNDEFINED   2147483750                       # Cumulative time (in ticks) in various power states (Tick)
system.cpu51.power_state.pwrStateResidencyTicks::UNDEFINED   2147483750                       # Cumulative time (in ticks) in various power states (Tick)
system.cpu52.power_state.pwrStateResidencyTicks::UNDEFINED   2147483750                       # Cumulative time (in ticks) in various power states (Tick)
system.cpu53.power_state.pwrStateResidencyTicks::UNDEFINED   2147483750                       # Cumulative time (in ticks) in various power states (Tick)
system.cpu54.power_state.pwrStateResidencyTicks::UNDEFINED   2147483750                       # Cumulative time (in ticks) in various power states (Tick)
system.cpu55.power_state.pwrStateResidencyTicks::UNDEFINED   2147483750                       # Cumulative time (in ticks) in various power states (Tick)
system.cpu56.power_state.pwrStateResidencyTicks::UNDEFINED   2147483750                       # Cumulative time (in ticks) in various power states (Tick)
system.cpu57.power_state.pwrStateResidencyTicks::UNDEFINED   2147483750                       # Cumulative time (in ticks) in various power states (Tick)
system.cpu58.power_state.pwrStateResidencyTicks::UNDEFINED   2147483750                       # Cumulative time (in ticks) in various power states (Tick)
system.cpu59.power_state.pwrStateResidencyTicks::UNDEFINED   2147483750                       # Cumulative time (in ticks) in various power states (Tick)
system.cpu6.power_state.pwrStateResidencyTicks::UNDEFINED   2147483750                       # Cumulative time (in ticks) in various power states (Tick)
system.cpu60.power_state.pwrStateResidencyTicks::UNDEFINED   2147483750                       # Cumulative time (in ticks) in various power states (Tick)
system.cpu61.power_state.pwrStateResidencyTicks::UNDEFINED   2147483750                       # Cumulative time (in ticks) in various power states (Tick)
system.cpu62.power_state.pwrStateResidencyTicks::UNDEFINED   2147483750                       # Cumulative time (in ticks) in various power states (Tick)
system.cpu63.power_state.pwrStateResidencyTicks::UNDEFINED   2147483750                       # Cumulative time (in ticks) in various power states (Tick)
system.cpu7.power_state.pwrStateResidencyTicks::UNDEFINED   2147483750                       # Cumulative time (in ticks) in various power states (Tick)
system.cpu8.power_state.pwrStateResidencyTicks::UNDEFINED   2147483750                       # Cumulative time (in ticks) in various power states (Tick)
system.cpu9.power_state.pwrStateResidencyTicks::UNDEFINED   2147483750                       # Cumulative time (in ticks) in various power states (Tick)
system.mem_ctrls0.power_state.pwrStateResidencyTicks::UNDEFINED   2147483750                       # Cumulative time (in ticks) in various power states (Tick)
system.mem_ctrls1.power_state.pwrStateResidencyTicks::UNDEFINED   2147483750                       # Cumulative time (in ticks) in various power states (Tick)
system.mem_ctrls10.power_state.pwrStateResidencyTicks::UNDEFINED   2147483750                       # Cumulative time (in ticks) in various power states (Tick)
system.mem_ctrls11.power_state.pwrStateResidencyTicks::UNDEFINED   2147483750                       # Cumulative time (in ticks) in various power states (Tick)
system.mem_ctrls12.power_state.pwrStateResidencyTicks::UNDEFINED   2147483750                       # Cumulative time (in ticks) in various power states (Tick)
system.mem_ctrls13.power_state.pwrStateResidencyTicks::UNDEFINED   2147483750                       # Cumulative time (in ticks) in various power states (Tick)
system.mem_ctrls14.power_state.pwrStateResidencyTicks::UNDEFINED   2147483750                       # Cumulative time (in ticks) in various power states (Tick)
system.mem_ctrls15.power_state.pwrStateResidencyTicks::UNDEFINED   2147483750                       # Cumulative time (in ticks) in various power states (Tick)
system.mem_ctrls16.power_state.pwrStateResidencyTicks::UNDEFINED   2147483750                       # Cumulative time (in ticks) in various power states (Tick)
system.mem_ctrls17.power_state.pwrStateResidencyTicks::UNDEFINED   2147483750                       # Cumulative time (in ticks) in various power states (Tick)
system.mem_ctrls18.power_state.pwrStateResidencyTicks::UNDEFINED   2147483750                       # Cumulative time (in ticks) in various power states (Tick)
system.mem_ctrls19.power_state.pwrStateResidencyTicks::UNDEFINED   2147483750                       # Cumulative time (in ticks) in various power states (Tick)
system.mem_ctrls2.power_state.pwrStateResidencyTicks::UNDEFINED   2147483750                       # Cumulative time (in ticks) in various power states (Tick)
system.mem_ctrls20.power_state.pwrStateResidencyTicks::UNDEFINED   2147483750                       # Cumulative time (in ticks) in various power states (Tick)
system.mem_ctrls21.power_state.pwrStateResidencyTicks::UNDEFINED   2147483750                       # Cumulative time (in ticks) in various power states (Tick)
system.mem_ctrls22.power_state.pwrStateResidencyTicks::UNDEFINED   2147483750                       # Cumulative time (in ticks) in various power states (Tick)
system.mem_ctrls23.power_state.pwrStateResidencyTicks::UNDEFINED   2147483750                       # Cumulative time (in ticks) in various power states (Tick)
system.mem_ctrls24.power_state.pwrStateResidencyTicks::UNDEFINED   2147483750                       # Cumulative time (in ticks) in various power states (Tick)
system.mem_ctrls25.power_state.pwrStateResidencyTicks::UNDEFINED   2147483750                       # Cumulative time (in ticks) in various power states (Tick)
system.mem_ctrls26.power_state.pwrStateResidencyTicks::UNDEFINED   2147483750                       # Cumulative time (in ticks) in various power states (Tick)
system.mem_ctrls27.power_state.pwrStateResidencyTicks::UNDEFINED   2147483750                       # Cumulative time (in ticks) in various power states (Tick)
system.mem_ctrls28.power_state.pwrStateResidencyTicks::UNDEFINED   2147483750                       # Cumulative time (in ticks) in various power states (Tick)
system.mem_ctrls29.power_state.pwrStateResidencyTicks::UNDEFINED   2147483750                       # Cumulative time (in ticks) in various power states (Tick)
system.mem_ctrls3.power_state.pwrStateResidencyTicks::UNDEFINED   2147483750                       # Cumulative time (in ticks) in various power states (Tick)
system.mem_ctrls30.power_state.pwrStateResidencyTicks::UNDEFINED   2147483750                       # Cumulative time (in ticks) in various power states (Tick)
system.mem_ctrls31.power_state.pwrStateResidencyTicks::UNDEFINED   2147483750                       # Cumulative time (in ticks) in various power states (Tick)
system.mem_ctrls32.power_state.pwrStateResidencyTicks::UNDEFINED   2147483750                       # Cumulative time (in ticks) in various power states (Tick)
system.mem_ctrls33.power_state.pwrStateResidencyTicks::UNDEFINED   2147483750                       # Cumulative time (in ticks) in various power states (Tick)
system.mem_ctrls34.power_state.pwrStateResidencyTicks::UNDEFINED   2147483750                       # Cumulative time (in ticks) in various power states (Tick)
system.mem_ctrls35.power_state.pwrStateResidencyTicks::UNDEFINED   2147483750                       # Cumulative time (in ticks) in various power states (Tick)
system.mem_ctrls36.power_state.pwrStateResidencyTicks::UNDEFINED   2147483750                       # Cumulative time (in ticks) in various power states (Tick)
system.mem_ctrls37.power_state.pwrStateResidencyTicks::UNDEFINED   2147483750                       # Cumulative time (in ticks) in various power states (Tick)
system.mem_ctrls38.power_state.pwrStateResidencyTicks::UNDEFINED   2147483750                       # Cumulative time (in ticks) in various power states (Tick)
system.mem_ctrls39.power_state.pwrStateResidencyTicks::UNDEFINED   2147483750                       # Cumulative time (in ticks) in various power states (Tick)
system.mem_ctrls4.power_state.pwrStateResidencyTicks::UNDEFINED   2147483750                       # Cumulative time (in ticks) in various power states (Tick)
system.mem_ctrls40.power_state.pwrStateResidencyTicks::UNDEFINED   2147483750                       # Cumulative time (in ticks) in various power states (Tick)
system.mem_ctrls41.power_state.pwrStateResidencyTicks::UNDEFINED   2147483750                       # Cumulative time (in ticks) in various power states (Tick)
system.mem_ctrls42.power_state.pwrStateResidencyTicks::UNDEFINED   2147483750                       # Cumulative time (in ticks) in various power states (Tick)
system.mem_ctrls43.power_state.pwrStateResidencyTicks::UNDEFINED   2147483750                       # Cumulative time (in ticks) in various power states (Tick)
system.mem_ctrls44.power_state.pwrStateResidencyTicks::UNDEFINED   2147483750                       # Cumulative time (in ticks) in various power states (Tick)
system.mem_ctrls45.power_state.pwrStateResidencyTicks::UNDEFINED   2147483750                       # Cumulative time (in ticks) in various power states (Tick)
system.mem_ctrls46.power_state.pwrStateResidencyTicks::UNDEFINED   2147483750                       # Cumulative time (in ticks) in various power states (Tick)
system.mem_ctrls47.power_state.pwrStateResidencyTicks::UNDEFINED   2147483750                       # Cumulative time (in ticks) in various power states (Tick)
system.mem_ctrls48.power_state.pwrStateResidencyTicks::UNDEFINED   2147483750                       # Cumulative time (in ticks) in various power states (Tick)
system.mem_ctrls49.power_state.pwrStateResidencyTicks::UNDEFINED   2147483750                       # Cumulative time (in ticks) in various power states (Tick)
system.mem_ctrls5.power_state.pwrStateResidencyTicks::UNDEFINED   2147483750                       # Cumulative time (in ticks) in various power states (Tick)
system.mem_ctrls50.power_state.pwrStateResidencyTicks::UNDEFINED   2147483750                       # Cumulative time (in ticks) in various power states (Tick)
system.mem_ctrls51.power_state.pwrStateResidencyTicks::UNDEFINED   2147483750                       # Cumulative time (in ticks) in various power states (Tick)
system.mem_ctrls52.power_state.pwrStateResidencyTicks::UNDEFINED   2147483750                       # Cumulative time (in ticks) in various power states (Tick)
system.mem_ctrls53.power_state.pwrStateResidencyTicks::UNDEFINED   2147483750                       # Cumulative time (in ticks) in various power states (Tick)
system.mem_ctrls54.power_state.pwrStateResidencyTicks::UNDEFINED   2147483750                       # Cumulative time (in ticks) in various power states (Tick)
system.mem_ctrls55.power_state.pwrStateResidencyTicks::UNDEFINED   2147483750                       # Cumulative time (in ticks) in various power states (Tick)
system.mem_ctrls56.power_state.pwrStateResidencyTicks::UNDEFINED   2147483750                       # Cumulative time (in ticks) in various power states (Tick)
system.mem_ctrls57.power_state.pwrStateResidencyTicks::UNDEFINED   2147483750                       # Cumulative time (in ticks) in various power states (Tick)
system.mem_ctrls58.power_state.pwrStateResidencyTicks::UNDEFINED   2147483750                       # Cumulative time (in ticks) in various power states (Tick)
system.mem_ctrls59.power_state.pwrStateResidencyTicks::UNDEFINED   2147483750                       # Cumulative time (in ticks) in various power states (Tick)
system.mem_ctrls6.power_state.pwrStateResidencyTicks::UNDEFINED   2147483750                       # Cumulative time (in ticks) in various power states (Tick)
system.mem_ctrls60.power_state.pwrStateResidencyTicks::UNDEFINED   2147483750                       # Cumulative time (in ticks) in various power states (Tick)
system.mem_ctrls61.power_state.pwrStateResidencyTicks::UNDEFINED   2147483750                       # Cumulative time (in ticks) in various power states (Tick)
system.mem_ctrls62.power_state.pwrStateResidencyTicks::UNDEFINED   2147483750                       # Cumulative time (in ticks) in various power states (Tick)
system.mem_ctrls63.power_state.pwrStateResidencyTicks::UNDEFINED   2147483750                       # Cumulative time (in ticks) in various power states (Tick)
system.mem_ctrls7.power_state.pwrStateResidencyTicks::UNDEFINED   2147483750                       # Cumulative time (in ticks) in various power states (Tick)
system.mem_ctrls8.power_state.pwrStateResidencyTicks::UNDEFINED   2147483750                       # Cumulative time (in ticks) in various power states (Tick)
system.mem_ctrls9.power_state.pwrStateResidencyTicks::UNDEFINED   2147483750                       # Cumulative time (in ticks) in various power states (Tick)
system.ruby.m_outstandReqHistSeqr::bucket_size            1                       (Unspecified)
system.ruby.m_outstandReqHistSeqr::max_bucket            9                       (Unspecified)
system.ruby.m_outstandReqHistSeqr::samples     93376004                       (Unspecified)
system.ruby.m_outstandReqHistSeqr::mean             1                       (Unspecified)
system.ruby.m_outstandReqHistSeqr::gmean            1                       (Unspecified)
system.ruby.m_outstandReqHistSeqr        |           0      0.00%      0.00% |    93376004    100.00%    100.00% |           0      0.00%    100.00% |           0      0.00%    100.00% |           0      0.00%    100.00% |           0      0.00%    100.00% |           0      0.00%    100.00% |           0      0.00%    100.00% |           0      0.00%    100.00% |           0      0.00%    100.00% (Unspecified)
system.ruby.m_outstandReqHistSeqr::total     93376004                       (Unspecified)
system.ruby.m_latencyHistSeqr::bucket_size            1                       (Unspecified)
system.ruby.m_latencyHistSeqr::max_bucket            9                       (Unspecified)
system.ruby.m_latencyHistSeqr::samples       93375996                       (Unspecified)
system.ruby.m_latencyHistSeqr::mean                 1                       (Unspecified)
system.ruby.m_latencyHistSeqr::gmean                1                       (Unspecified)
system.ruby.m_latencyHistSeqr            |           0      0.00%      0.00% |    93375996    100.00%    100.00% |           0      0.00%    100.00% |           0      0.00%    100.00% |           0      0.00%    100.00% |           0      0.00%    100.00% |           0      0.00%    100.00% |           0      0.00%    100.00% |           0      0.00%    100.00% |           0      0.00%    100.00% (Unspecified)
system.ruby.m_latencyHistSeqr::total         93375996                       (Unspecified)
system.ruby.m_hitLatencyHistSeqr::bucket_size            1                       (Unspecified)
system.ruby.m_hitLatencyHistSeqr::max_bucket            9                       (Unspecified)
system.ruby.m_hitLatencyHistSeqr::samples     93375996                       (Unspecified)
system.ruby.m_hitLatencyHistSeqr::mean              1                       (Unspecified)
system.ruby.m_hitLatencyHistSeqr::gmean             1                       (Unspecified)
system.ruby.m_hitLatencyHistSeqr         |           0      0.00%      0.00% |    93375996    100.00%    100.00% |           0      0.00%    100.00% |           0      0.00%    100.00% |           0      0.00%    100.00% |           0      0.00%    100.00% |           0      0.00%    100.00% |           0      0.00%    100.00% |           0      0.00%    100.00% |           0      0.00%    100.00% (Unspecified)
system.ruby.m_hitLatencyHistSeqr::total      93375996                       (Unspecified)
system.ruby.Directory_Controller.Receive_Request |      485380      1.56%      1.56% |      486159      1.56%      3.12% |      486338      1.56%      4.68% |      487225      1.57%      6.25% |      485862      1.56%      7.81% |      486401      1.56%      9.37% |      484545      1.56%     10.93% |      486825      1.56%     12.49% |      486525      1.56%     14.06% |      486191      1.56%     15.62% |      486624      1.56%     17.18% |      487142      1.57%     18.75% |      486423      1.56%     20.31% |      485595      1.56%     21.87% |      486117      1.56%     23.43% |      486680      1.56%     25.00% |      485468      1.56%     26.56% |      487277      1.57%     28.12% |      487008      1.56%     29.69% |      486248      1.56%     31.25% |      486906      1.56%     32.81% |      485508      1.56%     34.37% |      486259      1.56%     35.94% |      486004      1.56%     37.50% |      485621      1.56%     39.06% |      484897      1.56%     40.62% |      486958      1.56%     42.18% |      485288      1.56%     43.74% |      486996      1.56%     45.31% |      485446      1.56%     46.86% |      487519      1.57%     48.43% |      485072      1.56%     49.99% |      486104      1.56%     51.55% |      486353      1.56%     53.11% |      487399      1.57%     54.68% |      487593      1.57%     56.25% |      486559      1.56%     57.81% |      486903      1.56%     59.37% |      485463      1.56%     60.93% |      486687      1.56%     62.50% |      486145      1.56%     64.06% |      485497      1.56%     65.62% |      487200      1.57%     67.19% |      486963      1.56%     68.75% |      486953      1.56%     70.31% |      486886      1.56%     71.88% |      485750      1.56%     73.44% |      486505      1.56%     75.00% |      485619      1.56%     76.56% |      487172      1.57%     78.13% |      487249      1.57%     79.69% |      486159      1.56%     81.26% |      485979      1.56%     82.82% |      486043      1.56%     84.38% |      485765      1.56%     85.94% |      485915      1.56%     87.50% |      486336      1.56%     89.06% |      485291      1.56%     90.62% |      486308      1.56%     92.19% |      486299      1.56%     93.75% |      486447      1.56%     95.31% |      486404      1.56%     96.87% |      486267      1.56%     98.44% |      486663      1.56%    100.00% (Unspecified)
system.ruby.Directory_Controller.Receive_Request::total     31123383                       (Unspecified)
system.ruby.Directory_Controller.Receive_Forward |      486721      1.56%      1.56% |      485966      1.56%      3.12% |      486458      1.56%      4.69% |      486624      1.56%      6.25% |      486447      1.56%      7.81% |      485221      1.56%      9.37% |      485621      1.56%     10.93% |      486095      1.56%     12.49% |      487762      1.57%     14.06% |      485731      1.56%     15.62% |      487270      1.57%     17.19% |      486000      1.56%     18.75% |      485267      1.56%     20.31% |      487990      1.57%     21.88% |      486318      1.56%     23.44% |      487003      1.56%     25.00% |      486745      1.56%     26.57% |      486096      1.56%     28.13% |      485702      1.56%     29.69% |      486759      1.56%     31.25% |      486876      1.56%     32.82% |      486434      1.56%     34.38% |      484820      1.56%     35.94% |      486004      1.56%     37.50% |      486763      1.56%     39.06% |      486732      1.56%     40.63% |      485630      1.56%     42.19% |      485643      1.56%     43.75% |      485901      1.56%     45.31% |      486025      1.56%     46.87% |      486374      1.56%     48.43% |      486769      1.56%     50.00% |      486240      1.56%     51.56% |      486093      1.56%     53.12% |      486864      1.56%     54.68% |      485090      1.56%     56.24% |      485710      1.56%     57.80% |      487571      1.57%     59.37% |      487613      1.57%     60.94% |      486219      1.56%     62.50% |      487018      1.56%     64.06% |      486161      1.56%     65.62% |      486600      1.56%     67.19% |      485989      1.56%     68.75% |      485437      1.56%     70.31% |      486865      1.56%     71.87% |      485502      1.56%     73.43% |      485593      1.56%     74.99% |      486174      1.56%     76.55% |      487002      1.56%     78.12% |      485979      1.56%     79.68% |      487688      1.57%     81.25% |      485900      1.56%     82.81% |      486476      1.56%     84.37% |      486176      1.56%     85.93% |      486037      1.56%     87.49% |      486721      1.56%     89.06% |      485495      1.56%     90.62% |      487696      1.57%     92.19% |      485815      1.56%     93.75% |      486577      1.56%     95.31% |      488030      1.57%     96.88% |      486309      1.56%     98.44% |      485718      1.56%    100.00% (Unspecified)
system.ruby.Directory_Controller.Receive_Forward::total     31126125                       (Unspecified)
system.ruby.Directory_Controller.Receive_Response |      147036      1.56%      1.56% |      146613      1.56%      3.12% |      146526      1.56%      4.68% |      146162      1.56%      6.24% |      146345      1.56%      7.80% |      147283      1.57%      9.36% |      146233      1.56%     10.92% |      146920      1.56%     12.48% |      147273      1.57%     14.05% |      147176      1.57%     15.61% |      146532      1.56%     17.17% |      147058      1.56%     18.74% |      147339      1.57%     20.31% |      146832      1.56%     21.87% |      146559      1.56%     23.43% |      146891      1.56%     24.99% |      146267      1.56%     26.55% |      146715      1.56%     28.11% |      147369      1.57%     29.68% |      146221      1.56%     31.23% |      146791      1.56%     32.79% |      146868      1.56%     34.36% |      146932      1.56%     35.92% |      146729      1.56%     37.48% |      146460      1.56%     39.04% |      146876      1.56%     40.60% |      147341      1.57%     42.17% |      146378      1.56%     43.73% |      146338      1.56%     45.28% |      146576      1.56%     46.84% |      146480      1.56%     48.40% |      147070      1.56%     49.97% |      147398      1.57%     51.53% |      146398      1.56%     53.09% |      147627      1.57%     54.66% |      146909      1.56%     56.23% |      146562      1.56%     57.78% |      146720      1.56%     59.35% |      146499      1.56%     60.90% |      147221      1.57%     62.47% |      147167      1.57%     64.04% |      147010      1.56%     65.60% |      146950      1.56%     67.16% |      147003      1.56%     68.73% |      146735      1.56%     70.29% |      147605      1.57%     71.86% |      146685      1.56%     73.42% |      146561      1.56%     74.98% |      147380      1.57%     76.55% |      146733      1.56%     78.11% |      146327      1.56%     79.67% |      146675      1.56%     81.23% |      147076      1.56%     82.79% |      146579      1.56%     84.35% |      146539      1.56%     85.91% |      147103      1.57%     87.48% |      147241      1.57%     89.04% |      147288      1.57%     90.61% |      147305      1.57%     92.18% |      146972      1.56%     93.74% |      147006      1.56%     95.30% |      146769      1.56%     96.87% |      147229      1.57%     98.43% |      147391      1.57%    100.00% (Unspecified)
system.ruby.Directory_Controller.Receive_Response::total      9398852                       (Unspecified)
system.ruby.Directory_Controller.I.Receive_Request |      485380      1.56%      1.56% |      486159      1.56%      3.12% |      486338      1.56%      4.68% |      487225      1.57%      6.25% |      485862      1.56%      7.81% |      486401      1.56%      9.37% |      484545      1.56%     10.93% |      486825      1.56%     12.49% |      486525      1.56%     14.06% |      486191      1.56%     15.62% |      486624      1.56%     17.18% |      487142      1.57%     18.75% |      486423      1.56%     20.31% |      485595      1.56%     21.87% |      486117      1.56%     23.43% |      486680      1.56%     25.00% |      485468      1.56%     26.56% |      487277      1.57%     28.12% |      487008      1.56%     29.69% |      486248      1.56%     31.25% |      486906      1.56%     32.81% |      485508      1.56%     34.37% |      486259      1.56%     35.94% |      486004      1.56%     37.50% |      485621      1.56%     39.06% |      484897      1.56%     40.62% |      486958      1.56%     42.18% |      485288      1.56%     43.74% |      486996      1.56%     45.31% |      485446      1.56%     46.86% |      487519      1.57%     48.43% |      485072      1.56%     49.99% |      486104      1.56%     51.55% |      486353      1.56%     53.11% |      487399      1.57%     54.68% |      487593      1.57%     56.25% |      486559      1.56%     57.81% |      486903      1.56%     59.37% |      485463      1.56%     60.93% |      486687      1.56%     62.50% |      486145      1.56%     64.06% |      485497      1.56%     65.62% |      487200      1.57%     67.19% |      486963      1.56%     68.75% |      486953      1.56%     70.31% |      486886      1.56%     71.88% |      485750      1.56%     73.44% |      486505      1.56%     75.00% |      485619      1.56%     76.56% |      487172      1.57%     78.13% |      487249      1.57%     79.69% |      486159      1.56%     81.26% |      485979      1.56%     82.82% |      486043      1.56%     84.38% |      485765      1.56%     85.94% |      485915      1.56%     87.50% |      486336      1.56%     89.06% |      485291      1.56%     90.62% |      486308      1.56%     92.19% |      486299      1.56%     93.75% |      486447      1.56%     95.31% |      486404      1.56%     96.87% |      486267      1.56%     98.44% |      486663      1.56%    100.00% (Unspecified)
system.ruby.Directory_Controller.I.Receive_Request::total     31123383                       (Unspecified)
system.ruby.Directory_Controller.I.Receive_Forward |      486721      1.56%      1.56% |      485966      1.56%      3.12% |      486458      1.56%      4.69% |      486624      1.56%      6.25% |      486447      1.56%      7.81% |      485221      1.56%      9.37% |      485621      1.56%     10.93% |      486095      1.56%     12.49% |      487762      1.57%     14.06% |      485731      1.56%     15.62% |      487270      1.57%     17.19% |      486000      1.56%     18.75% |      485267      1.56%     20.31% |      487990      1.57%     21.88% |      486318      1.56%     23.44% |      487003      1.56%     25.00% |      486745      1.56%     26.57% |      486096      1.56%     28.13% |      485702      1.56%     29.69% |      486759      1.56%     31.25% |      486876      1.56%     32.82% |      486434      1.56%     34.38% |      484820      1.56%     35.94% |      486004      1.56%     37.50% |      486763      1.56%     39.06% |      486732      1.56%     40.63% |      485630      1.56%     42.19% |      485643      1.56%     43.75% |      485901      1.56%     45.31% |      486025      1.56%     46.87% |      486374      1.56%     48.43% |      486769      1.56%     50.00% |      486240      1.56%     51.56% |      486093      1.56%     53.12% |      486864      1.56%     54.68% |      485090      1.56%     56.24% |      485710      1.56%     57.80% |      487571      1.57%     59.37% |      487613      1.57%     60.94% |      486219      1.56%     62.50% |      487018      1.56%     64.06% |      486161      1.56%     65.62% |      486600      1.56%     67.19% |      485989      1.56%     68.75% |      485437      1.56%     70.31% |      486865      1.56%     71.87% |      485502      1.56%     73.43% |      485593      1.56%     74.99% |      486174      1.56%     76.55% |      487002      1.56%     78.12% |      485979      1.56%     79.68% |      487688      1.57%     81.25% |      485900      1.56%     82.81% |      486476      1.56%     84.37% |      486176      1.56%     85.93% |      486037      1.56%     87.49% |      486721      1.56%     89.06% |      485495      1.56%     90.62% |      487696      1.57%     92.19% |      485815      1.56%     93.75% |      486577      1.56%     95.31% |      488030      1.57%     96.88% |      486309      1.56%     98.44% |      485718      1.56%    100.00% (Unspecified)
system.ruby.Directory_Controller.I.Receive_Forward::total     31126125                       (Unspecified)
system.ruby.Directory_Controller.I.Receive_Response |      147036      1.56%      1.56% |      146613      1.56%      3.12% |      146526      1.56%      4.68% |      146162      1.56%      6.24% |      146345      1.56%      7.80% |      147283      1.57%      9.36% |      146233      1.56%     10.92% |      146920      1.56%     12.48% |      147273      1.57%     14.05% |      147176      1.57%     15.61% |      146532      1.56%     17.17% |      147058      1.56%     18.74% |      147339      1.57%     20.31% |      146832      1.56%     21.87% |      146559      1.56%     23.43% |      146891      1.56%     24.99% |      146267      1.56%     26.55% |      146715      1.56%     28.11% |      147369      1.57%     29.68% |      146221      1.56%     31.23% |      146791      1.56%     32.79% |      146868      1.56%     34.36% |      146932      1.56%     35.92% |      146729      1.56%     37.48% |      146460      1.56%     39.04% |      146876      1.56%     40.60% |      147341      1.57%     42.17% |      146378      1.56%     43.73% |      146338      1.56%     45.28% |      146576      1.56%     46.84% |      146480      1.56%     48.40% |      147070      1.56%     49.97% |      147398      1.57%     51.53% |      146398      1.56%     53.09% |      147627      1.57%     54.66% |      146909      1.56%     56.23% |      146562      1.56%     57.78% |      146720      1.56%     59.35% |      146499      1.56%     60.90% |      147221      1.57%     62.47% |      147167      1.57%     64.04% |      147010      1.56%     65.60% |      146950      1.56%     67.16% |      147003      1.56%     68.73% |      146735      1.56%     70.29% |      147605      1.57%     71.86% |      146685      1.56%     73.42% |      146561      1.56%     74.98% |      147380      1.57%     76.55% |      146733      1.56%     78.11% |      146327      1.56%     79.67% |      146675      1.56%     81.23% |      147076      1.56%     82.79% |      146579      1.56%     84.35% |      146539      1.56%     85.91% |      147103      1.57%     87.48% |      147241      1.57%     89.04% |      147288      1.57%     90.61% |      147305      1.57%     92.18% |      146972      1.56%     93.74% |      147006      1.56%     95.30% |      146769      1.56%     96.87% |      147229      1.57%     98.43% |      147391      1.57%    100.00% (Unspecified)
system.ruby.Directory_Controller.I.Receive_Response::total      9398852                       (Unspecified)
system.ruby.L1Cache_Controller.Request   |      485655      1.56%      1.56% |      486966      1.56%      3.13% |      486045      1.56%      4.69% |      485660      1.56%      6.25% |      485863      1.56%      7.81% |      486797      1.56%      9.37% |      486060      1.56%     10.93% |      487190      1.57%     12.50% |      485323      1.56%     14.06% |      486381      1.56%     15.62% |      487922      1.57%     17.19% |      485757      1.56%     18.75% |      485857      1.56%     20.31% |      486907      1.56%     21.88% |      486802      1.56%     23.44% |      487131      1.57%     25.00% |      486842      1.56%     26.57% |      487468      1.57%     28.14% |      485853      1.56%     29.70% |      486809      1.56%     31.26% |      486235      1.56%     32.82% |      485785      1.56%     34.38% |      486023      1.56%     35.94% |      486286      1.56%     37.51% |      486701      1.56%     39.07% |      486378      1.56%     40.63% |      487000      1.56%     42.20% |      487231      1.57%     43.76% |      485886      1.56%     45.33% |      485780      1.56%     46.89% |      486253      1.56%     48.45% |      485890      1.56%     50.01% |      485491      1.56%     51.57% |      487339      1.57%     53.14% |      485967      1.56%     54.70% |      486045      1.56%     56.26% |      486456      1.56%     57.82% |      486068      1.56%     59.38% |      486500      1.56%     60.95% |      486203      1.56%     62.51% |      486664      1.56%     64.07% |      484882      1.56%     65.63% |      485643      1.56%     67.19% |      485737      1.56%     68.75% |      486541      1.56%     70.31% |      486224      1.56%     71.88% |      487090      1.57%     73.44% |      485433      1.56%     75.00% |      486309      1.56%     76.56% |      486582      1.56%     78.13% |      485865      1.56%     79.69% |      486464      1.56%     81.25% |      487863      1.57%     82.82% |      484877      1.56%     84.38% |      485281      1.56%     85.94% |      487289      1.57%     87.50% |      487093      1.57%     89.07% |      485935      1.56%     90.63% |      486703      1.56%     92.19% |      485206      1.56%     93.75% |      485201      1.56%     95.31% |      486840      1.56%     96.87% |      486660      1.56%     98.44% |      486360      1.56%    100.00% (Unspecified)
system.ruby.L1Cache_Controller.Request::total     31123547                       (Unspecified)
system.ruby.L1Cache_Controller.Forward   |      486563      1.56%      1.56% |      485917      1.56%      3.12% |      486805      1.56%      4.69% |      486242      1.56%      6.25% |      486077      1.56%      7.81% |      486716      1.56%      9.38% |      487541      1.57%     10.94% |      486493      1.56%     12.51% |      486644      1.56%     14.07% |      485893      1.56%     15.63% |      485641      1.56%     17.19% |      485409      1.56%     18.75% |      485934      1.56%     20.31% |      486143      1.56%     21.87% |      486209      1.56%     23.43% |      486583      1.56%     25.00% |      486643      1.56%     26.56% |      486054      1.56%     28.12% |      486257      1.56%     29.68% |      485964      1.56%     31.25% |      486785      1.56%     32.81% |      487515      1.57%     34.38% |      486869      1.56%     35.94% |      485727      1.56%     37.50% |      486576      1.56%     39.06% |      487271      1.57%     40.63% |      487354      1.57%     42.20% |      485815      1.56%     43.76% |      485923      1.56%     45.32% |      487305      1.57%     46.88% |      486739      1.56%     48.45% |      486843      1.56%     50.01% |      486869      1.56%     51.57% |      486756      1.56%     53.14% |      487061      1.56%     54.70% |      485078      1.56%     56.26% |      485755      1.56%     57.82% |      485562      1.56%     59.38% |      486811      1.56%     60.95% |      486462      1.56%     62.51% |      486482      1.56%     64.07% |      485804      1.56%     65.63% |      487425      1.57%     67.20% |      486711      1.56%     68.76% |      487192      1.57%     70.33% |      486800      1.56%     71.89% |      486597      1.56%     73.46% |      484870      1.56%     75.01% |      485774      1.56%     76.57% |      484944      1.56%     78.13% |      485983      1.56%     79.69% |      486145      1.56%     81.25% |      486800      1.56%     82.82% |      485643      1.56%     84.38% |      486053      1.56%     85.94% |      485764      1.56%     87.50% |      486242      1.56%     89.06% |      485413      1.56%     90.62% |      487153      1.57%     92.19% |      486562      1.56%     93.75% |      486603      1.56%     95.31% |      485371      1.56%     96.87% |      486298      1.56%     98.44% |      486828      1.56%    100.00% (Unspecified)
system.ruby.L1Cache_Controller.Forward::total     31126261                       (Unspecified)
system.ruby.L1Cache_Controller.Response  |      486000      1.56%      1.56% |      487266      1.57%      3.13% |      486714      1.56%      4.69% |      487271      1.57%      6.26% |      486204      1.56%      7.82% |      486812      1.56%      9.38% |      485757      1.56%     10.94% |      485782      1.56%     12.50% |      485364      1.56%     14.06% |      485894      1.56%     15.62% |      486867      1.56%     17.19% |      486441      1.56%     18.75% |      486825      1.56%     20.31% |      486608      1.56%     21.88% |      486134      1.56%     23.44% |      486048      1.56%     25.00% |      486220      1.56%     26.56% |      486034      1.56%     28.13% |      486268      1.56%     29.69% |      485545      1.56%     31.25% |      486468      1.56%     32.81% |      486125      1.56%     34.37% |      486364      1.56%     35.93% |      487030      1.56%     37.50% |      485961      1.56%     39.06% |      486400      1.56%     40.62% |      486735      1.56%     42.19% |      486704      1.56%     43.75% |      485921      1.56%     45.31% |      487024      1.56%     46.88% |      486866      1.56%     48.44% |      486967      1.56%     50.00% |      485880      1.56%     51.57% |      486645      1.56%     53.13% |      486114      1.56%     54.69% |      487456      1.57%     56.26% |      487079      1.56%     57.82% |      487194      1.57%     59.39% |      484542      1.56%     60.94% |      487019      1.56%     62.51% |      485621      1.56%     64.07% |      485391      1.56%     65.63% |      487363      1.57%     67.19% |      485999      1.56%     68.76% |      486420      1.56%     70.32% |      486401      1.56%     71.88% |      486949      1.56%     73.45% |      485639      1.56%     75.01% |      485689      1.56%     76.57% |      485520      1.56%     78.13% |      485744      1.56%     79.69% |      486524      1.56%     81.25% |      486051      1.56%     82.81% |      487848      1.57%     84.38% |      486801      1.56%     85.94% |      486040      1.56%     87.50% |      486622      1.56%     89.07% |      486911      1.56%     90.63% |      486753      1.56%     92.20% |      486545      1.56%     93.76% |      485578      1.56%     95.32% |      486004      1.56%     96.88% |      485862      1.56%     98.44% |      485365      1.56%    100.00% (Unspecified)
system.ruby.L1Cache_Controller.Response::total     31126188                       (Unspecified)
system.ruby.L1Cache_Controller.I.Request |      485655      1.56%      1.56% |      486966      1.56%      3.13% |      486045      1.56%      4.69% |      485660      1.56%      6.25% |      485863      1.56%      7.81% |      486797      1.56%      9.37% |      486060      1.56%     10.93% |      487190      1.57%     12.50% |      485323      1.56%     14.06% |      486381      1.56%     15.62% |      487922      1.57%     17.19% |      485757      1.56%     18.75% |      485857      1.56%     20.31% |      486907      1.56%     21.88% |      486802      1.56%     23.44% |      487131      1.57%     25.00% |      486842      1.56%     26.57% |      487468      1.57%     28.14% |      485853      1.56%     29.70% |      486809      1.56%     31.26% |      486235      1.56%     32.82% |      485785      1.56%     34.38% |      486023      1.56%     35.94% |      486286      1.56%     37.51% |      486701      1.56%     39.07% |      486378      1.56%     40.63% |      487000      1.56%     42.20% |      487231      1.57%     43.76% |      485886      1.56%     45.33% |      485780      1.56%     46.89% |      486253      1.56%     48.45% |      485890      1.56%     50.01% |      485491      1.56%     51.57% |      487339      1.57%     53.14% |      485967      1.56%     54.70% |      486045      1.56%     56.26% |      486456      1.56%     57.82% |      486068      1.56%     59.38% |      486500      1.56%     60.95% |      486203      1.56%     62.51% |      486664      1.56%     64.07% |      484882      1.56%     65.63% |      485643      1.56%     67.19% |      485737      1.56%     68.75% |      486541      1.56%     70.31% |      486224      1.56%     71.88% |      487090      1.57%     73.44% |      485433      1.56%     75.00% |      486309      1.56%     76.56% |      486582      1.56%     78.13% |      485865      1.56%     79.69% |      486464      1.56%     81.25% |      487863      1.57%     82.82% |      484877      1.56%     84.38% |      485281      1.56%     85.94% |      487289      1.57%     87.50% |      487093      1.57%     89.07% |      485935      1.56%     90.63% |      486703      1.56%     92.19% |      485206      1.56%     93.75% |      485201      1.56%     95.31% |      486840      1.56%     96.87% |      486660      1.56%     98.44% |      486360      1.56%    100.00% (Unspecified)
system.ruby.L1Cache_Controller.I.Request::total     31123547                       (Unspecified)
system.ruby.L1Cache_Controller.I.Forward |      486563      1.56%      1.56% |      485917      1.56%      3.12% |      486805      1.56%      4.69% |      486242      1.56%      6.25% |      486077      1.56%      7.81% |      486716      1.56%      9.38% |      487541      1.57%     10.94% |      486493      1.56%     12.51% |      486644      1.56%     14.07% |      485893      1.56%     15.63% |      485641      1.56%     17.19% |      485409      1.56%     18.75% |      485934      1.56%     20.31% |      486143      1.56%     21.87% |      486209      1.56%     23.43% |      486583      1.56%     25.00% |      486643      1.56%     26.56% |      486054      1.56%     28.12% |      486257      1.56%     29.68% |      485964      1.56%     31.25% |      486785      1.56%     32.81% |      487515      1.57%     34.38% |      486869      1.56%     35.94% |      485727      1.56%     37.50% |      486576      1.56%     39.06% |      487271      1.57%     40.63% |      487354      1.57%     42.20% |      485815      1.56%     43.76% |      485923      1.56%     45.32% |      487305      1.57%     46.88% |      486739      1.56%     48.45% |      486843      1.56%     50.01% |      486869      1.56%     51.57% |      486756      1.56%     53.14% |      487061      1.56%     54.70% |      485078      1.56%     56.26% |      485755      1.56%     57.82% |      485562      1.56%     59.38% |      486811      1.56%     60.95% |      486462      1.56%     62.51% |      486482      1.56%     64.07% |      485804      1.56%     65.63% |      487425      1.57%     67.20% |      486711      1.56%     68.76% |      487192      1.57%     70.33% |      486800      1.56%     71.89% |      486597      1.56%     73.46% |      484870      1.56%     75.01% |      485774      1.56%     76.57% |      484944      1.56%     78.13% |      485983      1.56%     79.69% |      486145      1.56%     81.25% |      486800      1.56%     82.82% |      485643      1.56%     84.38% |      486053      1.56%     85.94% |      485764      1.56%     87.50% |      486242      1.56%     89.06% |      485413      1.56%     90.62% |      487153      1.57%     92.19% |      486562      1.56%     93.75% |      486603      1.56%     95.31% |      485371      1.56%     96.87% |      486298      1.56%     98.44% |      486828      1.56%    100.00% (Unspecified)
system.ruby.L1Cache_Controller.I.Forward::total     31126261                       (Unspecified)
system.ruby.L1Cache_Controller.I.Response |      486000      1.56%      1.56% |      487266      1.57%      3.13% |      486714      1.56%      4.69% |      487271      1.57%      6.26% |      486204      1.56%      7.82% |      486812      1.56%      9.38% |      485757      1.56%     10.94% |      485782      1.56%     12.50% |      485364      1.56%     14.06% |      485894      1.56%     15.62% |      486867      1.56%     17.19% |      486441      1.56%     18.75% |      486825      1.56%     20.31% |      486608      1.56%     21.88% |      486134      1.56%     23.44% |      486048      1.56%     25.00% |      486220      1.56%     26.56% |      486034      1.56%     28.13% |      486268      1.56%     29.69% |      485545      1.56%     31.25% |      486468      1.56%     32.81% |      486125      1.56%     34.37% |      486364      1.56%     35.93% |      487030      1.56%     37.50% |      485961      1.56%     39.06% |      486400      1.56%     40.62% |      486735      1.56%     42.19% |      486704      1.56%     43.75% |      485921      1.56%     45.31% |      487024      1.56%     46.88% |      486866      1.56%     48.44% |      486967      1.56%     50.00% |      485880      1.56%     51.57% |      486645      1.56%     53.13% |      486114      1.56%     54.69% |      487456      1.57%     56.26% |      487079      1.56%     57.82% |      487194      1.57%     59.39% |      484542      1.56%     60.94% |      487019      1.56%     62.51% |      485621      1.56%     64.07% |      485391      1.56%     65.63% |      487363      1.57%     67.19% |      485999      1.56%     68.76% |      486420      1.56%     70.32% |      486401      1.56%     71.88% |      486949      1.56%     73.45% |      485639      1.56%     75.01% |      485689      1.56%     76.57% |      485520      1.56%     78.13% |      485744      1.56%     79.69% |      486524      1.56%     81.25% |      486051      1.56%     82.81% |      487848      1.57%     84.38% |      486801      1.56%     85.94% |      486040      1.56%     87.50% |      486622      1.56%     89.07% |      486911      1.56%     90.63% |      486753      1.56%     92.20% |      486545      1.56%     93.76% |      485578      1.56%     95.32% |      486004      1.56%     96.88% |      485862      1.56%     98.44% |      485365      1.56%    100.00% (Unspecified)
system.ruby.L1Cache_Controller.I.Response::total     31126188                       (Unspecified)
system.ruby.RequestType.LD.latency_hist_seqr::bucket_size            1                       (Unspecified)
system.ruby.RequestType.LD.latency_hist_seqr::max_bucket            9                       (Unspecified)
system.ruby.RequestType.LD.latency_hist_seqr::samples     31123547                       (Unspecified)
system.ruby.RequestType.LD.latency_hist_seqr::mean            1                       (Unspecified)
system.ruby.RequestType.LD.latency_hist_seqr::gmean            1                       (Unspecified)
system.ruby.RequestType.LD.latency_hist_seqr |           0      0.00%      0.00% |    31123547    100.00%    100.00% |           0      0.00%    100.00% |           0      0.00%    100.00% |           0      0.00%    100.00% |           0      0.00%    100.00% |           0      0.00%    100.00% |           0      0.00%    100.00% |           0      0.00%    100.00% |           0      0.00%    100.00% (Unspecified)
system.ruby.RequestType.LD.latency_hist_seqr::total     31123547                       (Unspecified)
system.ruby.RequestType.LD.hit_latency_hist_seqr::bucket_size            1                       (Unspecified)
system.ruby.RequestType.LD.hit_latency_hist_seqr::max_bucket            9                       (Unspecified)
system.ruby.RequestType.LD.hit_latency_hist_seqr::samples     31123547                       (Unspecified)
system.ruby.RequestType.LD.hit_latency_hist_seqr::mean            1                       (Unspecified)
system.ruby.RequestType.LD.hit_latency_hist_seqr::gmean            1                       (Unspecified)
system.ruby.RequestType.LD.hit_latency_hist_seqr |           0      0.00%      0.00% |    31123547    100.00%    100.00% |           0      0.00%    100.00% |           0      0.00%    100.00% |           0      0.00%    100.00% |           0      0.00%    100.00% |           0      0.00%    100.00% |           0      0.00%    100.00% |           0      0.00%    100.00% |           0      0.00%    100.00% (Unspecified)
system.ruby.RequestType.LD.hit_latency_hist_seqr::total     31123547                       (Unspecified)
system.ruby.RequestType.ST.latency_hist_seqr::bucket_size            1                       (Unspecified)
system.ruby.RequestType.ST.latency_hist_seqr::max_bucket            9                       (Unspecified)
system.ruby.RequestType.ST.latency_hist_seqr::samples     31126188                       (Unspecified)
system.ruby.RequestType.ST.latency_hist_seqr::mean            1                       (Unspecified)
system.ruby.RequestType.ST.latency_hist_seqr::gmean            1                       (Unspecified)
system.ruby.RequestType.ST.latency_hist_seqr |           0      0.00%      0.00% |    31126188    100.00%    100.00% |           0      0.00%    100.00% |           0      0.00%    100.00% |           0      0.00%    100.00% |           0      0.00%    100.00% |           0      0.00%    100.00% |           0      0.00%    100.00% |           0      0.00%    100.00% |           0      0.00%    100.00% (Unspecified)
system.ruby.RequestType.ST.latency_hist_seqr::total     31126188                       (Unspecified)
system.ruby.RequestType.ST.hit_latency_hist_seqr::bucket_size            1                       (Unspecified)
system.ruby.RequestType.ST.hit_latency_hist_seqr::max_bucket            9                       (Unspecified)
system.ruby.RequestType.ST.hit_latency_hist_seqr::samples     31126188                       (Unspecified)
system.ruby.RequestType.ST.hit_latency_hist_seqr::mean            1                       (Unspecified)
system.ruby.RequestType.ST.hit_latency_hist_seqr::gmean            1                       (Unspecified)
system.ruby.RequestType.ST.hit_latency_hist_seqr |           0      0.00%      0.00% |    31126188    100.00%    100.00% |           0      0.00%    100.00% |           0      0.00%    100.00% |           0      0.00%    100.00% |           0      0.00%    100.00% |           0      0.00%    100.00% |           0      0.00%    100.00% |           0      0.00%    100.00% |           0      0.00%    100.00% (Unspecified)
system.ruby.RequestType.ST.hit_latency_hist_seqr::total     31126188                       (Unspecified)
system.ruby.RequestType.IFETCH.latency_hist_seqr::bucket_size            1                       (Unspecified)
system.ruby.RequestType.IFETCH.latency_hist_seqr::max_bucket            9                       (Unspecified)
system.ruby.RequestType.IFETCH.latency_hist_seqr::samples     31126261                       (Unspecified)
system.ruby.RequestType.IFETCH.latency_hist_seqr::mean            1                       (Unspecified)
system.ruby.RequestType.IFETCH.latency_hist_seqr::gmean            1                       (Unspecified)
system.ruby.RequestType.IFETCH.latency_hist_seqr |           0      0.00%      0.00% |    31126261    100.00%    100.00% |           0      0.00%    100.00% |           0      0.00%    100.00% |           0      0.00%    100.00% |           0      0.00%    100.00% |           0      0.00%    100.00% |           0      0.00%    100.00% |           0      0.00%    100.00% |           0      0.00%    100.00% (Unspecified)
system.ruby.RequestType.IFETCH.latency_hist_seqr::total     31126261                       (Unspecified)
system.ruby.RequestType.IFETCH.hit_latency_hist_seqr::bucket_size            1                       (Unspecified)
system.ruby.RequestType.IFETCH.hit_latency_hist_seqr::max_bucket            9                       (Unspecified)
system.ruby.RequestType.IFETCH.hit_latency_hist_seqr::samples     31126261                       (Unspecified)
system.ruby.RequestType.IFETCH.hit_latency_hist_seqr::mean            1                       (Unspecified)
system.ruby.RequestType.IFETCH.hit_latency_hist_seqr::gmean            1                       (Unspecified)
system.ruby.RequestType.IFETCH.hit_latency_hist_seqr |           0      0.00%      0.00% |    31126261    100.00%    100.00% |           0      0.00%    100.00% |           0      0.00%    100.00% |           0      0.00%    100.00% |           0      0.00%    100.00% |           0      0.00%    100.00% |           0      0.00%    100.00% |           0      0.00%    100.00% |           0      0.00%    100.00% (Unspecified)
system.ruby.RequestType.IFETCH.hit_latency_hist_seqr::total     31126261                       (Unspecified)
system.ruby.clk_domain.clock                      250                       # Clock period in ticks (Tick)
system.ruby.dir_cntrl0.forwardToDir.m_msg_count       486721                       # Number of messages passed the buffer (Count)
system.ruby.dir_cntrl0.forwardToDir.m_buf_msgs     0.056662                       # Average number of messages in buffer ((Count/Tick))
system.ruby.dir_cntrl0.power_state.pwrStateResidencyTicks::UNDEFINED   2147483750                       # Cumulative time (in ticks) in various power states (Tick)
system.ruby.dir_cntrl0.requestToDir.m_msg_count       485380                       # Number of messages passed the buffer (Count)
system.ruby.dir_cntrl0.requestToDir.m_buf_msgs     0.056506                       # Average number of messages in buffer ((Count/Tick))
system.ruby.dir_cntrl0.responseToDir.m_msg_count       147036                       # Number of messages passed the buffer (Count)
system.ruby.dir_cntrl0.responseToDir.m_buf_msgs     0.017117                       # Average number of messages in buffer ((Count/Tick))
system.ruby.dir_cntrl1.forwardToDir.m_msg_count       485966                       # Number of messages passed the buffer (Count)
system.ruby.dir_cntrl1.forwardToDir.m_buf_msgs     0.056574                       # Average number of messages in buffer ((Count/Tick))
system.ruby.dir_cntrl1.power_state.pwrStateResidencyTicks::UNDEFINED   2147483750                       # Cumulative time (in ticks) in various power states (Tick)
system.ruby.dir_cntrl1.requestToDir.m_msg_count       486159                       # Number of messages passed the buffer (Count)
system.ruby.dir_cntrl1.requestToDir.m_buf_msgs     0.056596                       # Average number of messages in buffer ((Count/Tick))
system.ruby.dir_cntrl1.responseToDir.m_msg_count       146613                       # Number of messages passed the buffer (Count)
system.ruby.dir_cntrl1.responseToDir.m_buf_msgs     0.017068                       # Average number of messages in buffer ((Count/Tick))
system.ruby.dir_cntrl10.forwardToDir.m_msg_count       487270                       # Number of messages passed the buffer (Count)
system.ruby.dir_cntrl10.forwardToDir.m_buf_msgs     0.056726                       # Average number of messages in buffer ((Count/Tick))
system.ruby.dir_cntrl10.power_state.pwrStateResidencyTicks::UNDEFINED   2147483750                       # Cumulative time (in ticks) in various power states (Tick)
system.ruby.dir_cntrl10.requestToDir.m_msg_count       486624                       # Number of messages passed the buffer (Count)
system.ruby.dir_cntrl10.requestToDir.m_buf_msgs     0.056650                       # Average number of messages in buffer ((Count/Tick))
system.ruby.dir_cntrl10.responseToDir.m_msg_count       146532                       # Number of messages passed the buffer (Count)
system.ruby.dir_cntrl10.responseToDir.m_buf_msgs     0.017059                       # Average number of messages in buffer ((Count/Tick))
system.ruby.dir_cntrl11.forwardToDir.m_msg_count       486000                       # Number of messages passed the buffer (Count)
system.ruby.dir_cntrl11.forwardToDir.m_buf_msgs     0.056578                       # Average number of messages in buffer ((Count/Tick))
system.ruby.dir_cntrl11.power_state.pwrStateResidencyTicks::UNDEFINED   2147483750                       # Cumulative time (in ticks) in various power states (Tick)
system.ruby.dir_cntrl11.requestToDir.m_msg_count       487142                       # Number of messages passed the buffer (Count)
system.ruby.dir_cntrl11.requestToDir.m_buf_msgs     0.056711                       # Average number of messages in buffer ((Count/Tick))
system.ruby.dir_cntrl11.responseToDir.m_msg_count       147058                       # Number of messages passed the buffer (Count)
system.ruby.dir_cntrl11.responseToDir.m_buf_msgs     0.017120                       # Average number of messages in buffer ((Count/Tick))
system.ruby.dir_cntrl12.forwardToDir.m_msg_count       485267                       # Number of messages passed the buffer (Count)
system.ruby.dir_cntrl12.forwardToDir.m_buf_msgs     0.056493                       # Average number of messages in buffer ((Count/Tick))
system.ruby.dir_cntrl12.power_state.pwrStateResidencyTicks::UNDEFINED   2147483750                       # Cumulative time (in ticks) in various power states (Tick)
system.ruby.dir_cntrl12.requestToDir.m_msg_count       486423                       # Number of messages passed the buffer (Count)
system.ruby.dir_cntrl12.requestToDir.m_buf_msgs     0.056627                       # Average number of messages in buffer ((Count/Tick))
system.ruby.dir_cntrl12.responseToDir.m_msg_count       147339                       # Number of messages passed the buffer (Count)
system.ruby.dir_cntrl12.responseToDir.m_buf_msgs     0.017153                       # Average number of messages in buffer ((Count/Tick))
system.ruby.dir_cntrl13.forwardToDir.m_msg_count       487990                       # Number of messages passed the buffer (Count)
system.ruby.dir_cntrl13.forwardToDir.m_buf_msgs     0.056810                       # Average number of messages in buffer ((Count/Tick))
system.ruby.dir_cntrl13.power_state.pwrStateResidencyTicks::UNDEFINED   2147483750                       # Cumulative time (in ticks) in various power states (Tick)
system.ruby.dir_cntrl13.requestToDir.m_msg_count       485595                       # Number of messages passed the buffer (Count)
system.ruby.dir_cntrl13.requestToDir.m_buf_msgs     0.056531                       # Average number of messages in buffer ((Count/Tick))
system.ruby.dir_cntrl13.responseToDir.m_msg_count       146832                       # Number of messages passed the buffer (Count)
system.ruby.dir_cntrl13.responseToDir.m_buf_msgs     0.017093                       # Average number of messages in buffer ((Count/Tick))
system.ruby.dir_cntrl14.forwardToDir.m_msg_count       486318                       # Number of messages passed the buffer (Count)
system.ruby.dir_cntrl14.forwardToDir.m_buf_msgs     0.056615                       # Average number of messages in buffer ((Count/Tick))
system.ruby.dir_cntrl14.power_state.pwrStateResidencyTicks::UNDEFINED   2147483750                       # Cumulative time (in ticks) in various power states (Tick)
system.ruby.dir_cntrl14.requestToDir.m_msg_count       486117                       # Number of messages passed the buffer (Count)
system.ruby.dir_cntrl14.requestToDir.m_buf_msgs     0.056591                       # Average number of messages in buffer ((Count/Tick))
system.ruby.dir_cntrl14.responseToDir.m_msg_count       146559                       # Number of messages passed the buffer (Count)
system.ruby.dir_cntrl14.responseToDir.m_buf_msgs     0.017062                       # Average number of messages in buffer ((Count/Tick))
system.ruby.dir_cntrl15.forwardToDir.m_msg_count       487003                       # Number of messages passed the buffer (Count)
system.ruby.dir_cntrl15.forwardToDir.m_buf_msgs     0.056695                       # Average number of messages in buffer ((Count/Tick))
system.ruby.dir_cntrl15.power_state.pwrStateResidencyTicks::UNDEFINED   2147483750                       # Cumulative time (in ticks) in various power states (Tick)
system.ruby.dir_cntrl15.requestToDir.m_msg_count       486680                       # Number of messages passed the buffer (Count)
system.ruby.dir_cntrl15.requestToDir.m_buf_msgs     0.056657                       # Average number of messages in buffer ((Count/Tick))
system.ruby.dir_cntrl15.responseToDir.m_msg_count       146891                       # Number of messages passed the buffer (Count)
system.ruby.dir_cntrl15.responseToDir.m_buf_msgs     0.017100                       # Average number of messages in buffer ((Count/Tick))
system.ruby.dir_cntrl16.forwardToDir.m_msg_count       486745                       # Number of messages passed the buffer (Count)
system.ruby.dir_cntrl16.forwardToDir.m_buf_msgs     0.056665                       # Average number of messages in buffer ((Count/Tick))
system.ruby.dir_cntrl16.power_state.pwrStateResidencyTicks::UNDEFINED   2147483750                       # Cumulative time (in ticks) in various power states (Tick)
system.ruby.dir_cntrl16.requestToDir.m_msg_count       485468                       # Number of messages passed the buffer (Count)
system.ruby.dir_cntrl16.requestToDir.m_buf_msgs     0.056516                       # Average number of messages in buffer ((Count/Tick))
system.ruby.dir_cntrl16.responseToDir.m_msg_count       146267                       # Number of messages passed the buffer (Count)
system.ruby.dir_cntrl16.responseToDir.m_buf_msgs     0.017028                       # Average number of messages in buffer ((Count/Tick))
system.ruby.dir_cntrl17.forwardToDir.m_msg_count       486096                       # Number of messages passed the buffer (Count)
system.ruby.dir_cntrl17.forwardToDir.m_buf_msgs     0.056589                       # Average number of messages in buffer ((Count/Tick))
system.ruby.dir_cntrl17.power_state.pwrStateResidencyTicks::UNDEFINED   2147483750                       # Cumulative time (in ticks) in various power states (Tick)
system.ruby.dir_cntrl17.requestToDir.m_msg_count       487277                       # Number of messages passed the buffer (Count)
system.ruby.dir_cntrl17.requestToDir.m_buf_msgs     0.056727                       # Average number of messages in buffer ((Count/Tick))
system.ruby.dir_cntrl17.responseToDir.m_msg_count       146715                       # Number of messages passed the buffer (Count)
system.ruby.dir_cntrl17.responseToDir.m_buf_msgs     0.017080                       # Average number of messages in buffer ((Count/Tick))
system.ruby.dir_cntrl18.forwardToDir.m_msg_count       485702                       # Number of messages passed the buffer (Count)
system.ruby.dir_cntrl18.forwardToDir.m_buf_msgs     0.056543                       # Average number of messages in buffer ((Count/Tick))
system.ruby.dir_cntrl18.power_state.pwrStateResidencyTicks::UNDEFINED   2147483750                       # Cumulative time (in ticks) in various power states (Tick)
system.ruby.dir_cntrl18.requestToDir.m_msg_count       487008                       # Number of messages passed the buffer (Count)
system.ruby.dir_cntrl18.requestToDir.m_buf_msgs     0.056695                       # Average number of messages in buffer ((Count/Tick))
system.ruby.dir_cntrl18.responseToDir.m_msg_count       147369                       # Number of messages passed the buffer (Count)
system.ruby.dir_cntrl18.responseToDir.m_buf_msgs     0.017156                       # Average number of messages in buffer ((Count/Tick))
system.ruby.dir_cntrl19.forwardToDir.m_msg_count       486759                       # Number of messages passed the buffer (Count)
system.ruby.dir_cntrl19.forwardToDir.m_buf_msgs     0.056666                       # Average number of messages in buffer ((Count/Tick))
system.ruby.dir_cntrl19.power_state.pwrStateResidencyTicks::UNDEFINED   2147483750                       # Cumulative time (in ticks) in various power states (Tick)
system.ruby.dir_cntrl19.requestToDir.m_msg_count       486248                       # Number of messages passed the buffer (Count)
system.ruby.dir_cntrl19.requestToDir.m_buf_msgs     0.056607                       # Average number of messages in buffer ((Count/Tick))
system.ruby.dir_cntrl19.responseToDir.m_msg_count       146221                       # Number of messages passed the buffer (Count)
system.ruby.dir_cntrl19.responseToDir.m_buf_msgs     0.017022                       # Average number of messages in buffer ((Count/Tick))
system.ruby.dir_cntrl2.forwardToDir.m_msg_count       486458                       # Number of messages passed the buffer (Count)
system.ruby.dir_cntrl2.forwardToDir.m_buf_msgs     0.056631                       # Average number of messages in buffer ((Count/Tick))
system.ruby.dir_cntrl2.power_state.pwrStateResidencyTicks::UNDEFINED   2147483750                       # Cumulative time (in ticks) in various power states (Tick)
system.ruby.dir_cntrl2.requestToDir.m_msg_count       486338                       # Number of messages passed the buffer (Count)
system.ruby.dir_cntrl2.requestToDir.m_buf_msgs     0.056617                       # Average number of messages in buffer ((Count/Tick))
system.ruby.dir_cntrl2.responseToDir.m_msg_count       146526                       # Number of messages passed the buffer (Count)
system.ruby.dir_cntrl2.responseToDir.m_buf_msgs     0.017058                       # Average number of messages in buffer ((Count/Tick))
system.ruby.dir_cntrl20.forwardToDir.m_msg_count       486876                       # Number of messages passed the buffer (Count)
system.ruby.dir_cntrl20.forwardToDir.m_buf_msgs     0.056680                       # Average number of messages in buffer ((Count/Tick))
system.ruby.dir_cntrl20.power_state.pwrStateResidencyTicks::UNDEFINED   2147483750                       # Cumulative time (in ticks) in various power states (Tick)
system.ruby.dir_cntrl20.requestToDir.m_msg_count       486906                       # Number of messages passed the buffer (Count)
system.ruby.dir_cntrl20.requestToDir.m_buf_msgs     0.056683                       # Average number of messages in buffer ((Count/Tick))
system.ruby.dir_cntrl20.responseToDir.m_msg_count       146791                       # Number of messages passed the buffer (Count)
system.ruby.dir_cntrl20.responseToDir.m_buf_msgs     0.017089                       # Average number of messages in buffer ((Count/Tick))
system.ruby.dir_cntrl21.forwardToDir.m_msg_count       486434                       # Number of messages passed the buffer (Count)
system.ruby.dir_cntrl21.forwardToDir.m_buf_msgs     0.056628                       # Average number of messages in buffer ((Count/Tick))
system.ruby.dir_cntrl21.power_state.pwrStateResidencyTicks::UNDEFINED   2147483750                       # Cumulative time (in ticks) in various power states (Tick)
system.ruby.dir_cntrl21.requestToDir.m_msg_count       485508                       # Number of messages passed the buffer (Count)
system.ruby.dir_cntrl21.requestToDir.m_buf_msgs     0.056521                       # Average number of messages in buffer ((Count/Tick))
system.ruby.dir_cntrl21.responseToDir.m_msg_count       146868                       # Number of messages passed the buffer (Count)
system.ruby.dir_cntrl21.responseToDir.m_buf_msgs     0.017098                       # Average number of messages in buffer ((Count/Tick))
system.ruby.dir_cntrl22.forwardToDir.m_msg_count       484820                       # Number of messages passed the buffer (Count)
system.ruby.dir_cntrl22.forwardToDir.m_buf_msgs     0.056440                       # Average number of messages in buffer ((Count/Tick))
system.ruby.dir_cntrl22.power_state.pwrStateResidencyTicks::UNDEFINED   2147483750                       # Cumulative time (in ticks) in various power states (Tick)
system.ruby.dir_cntrl22.requestToDir.m_msg_count       486259                       # Number of messages passed the buffer (Count)
system.ruby.dir_cntrl22.requestToDir.m_buf_msgs     0.056608                       # Average number of messages in buffer ((Count/Tick))
system.ruby.dir_cntrl22.responseToDir.m_msg_count       146932                       # Number of messages passed the buffer (Count)
system.ruby.dir_cntrl22.responseToDir.m_buf_msgs     0.017105                       # Average number of messages in buffer ((Count/Tick))
system.ruby.dir_cntrl23.forwardToDir.m_msg_count       486004                       # Number of messages passed the buffer (Count)
system.ruby.dir_cntrl23.forwardToDir.m_buf_msgs     0.056578                       # Average number of messages in buffer ((Count/Tick))
system.ruby.dir_cntrl23.power_state.pwrStateResidencyTicks::UNDEFINED   2147483750                       # Cumulative time (in ticks) in various power states (Tick)
system.ruby.dir_cntrl23.requestToDir.m_msg_count       486004                       # Number of messages passed the buffer (Count)
system.ruby.dir_cntrl23.requestToDir.m_buf_msgs     0.056578                       # Average number of messages in buffer ((Count/Tick))
system.ruby.dir_cntrl23.responseToDir.m_msg_count       146729                       # Number of messages passed the buffer (Count)
system.ruby.dir_cntrl23.responseToDir.m_buf_msgs     0.017082                       # Average number of messages in buffer ((Count/Tick))
system.ruby.dir_cntrl24.forwardToDir.m_msg_count       486763                       # Number of messages passed the buffer (Count)
system.ruby.dir_cntrl24.forwardToDir.m_buf_msgs     0.056667                       # Average number of messages in buffer ((Count/Tick))
system.ruby.dir_cntrl24.power_state.pwrStateResidencyTicks::UNDEFINED   2147483750                       # Cumulative time (in ticks) in various power states (Tick)
system.ruby.dir_cntrl24.requestToDir.m_msg_count       485621                       # Number of messages passed the buffer (Count)
system.ruby.dir_cntrl24.requestToDir.m_buf_msgs     0.056534                       # Average number of messages in buffer ((Count/Tick))
system.ruby.dir_cntrl24.responseToDir.m_msg_count       146460                       # Number of messages passed the buffer (Count)
system.ruby.dir_cntrl24.responseToDir.m_buf_msgs     0.017050                       # Average number of messages in buffer ((Count/Tick))
system.ruby.dir_cntrl25.forwardToDir.m_msg_count       486732                       # Number of messages passed the buffer (Count)
system.ruby.dir_cntrl25.forwardToDir.m_buf_msgs     0.056663                       # Average number of messages in buffer ((Count/Tick))
system.ruby.dir_cntrl25.power_state.pwrStateResidencyTicks::UNDEFINED   2147483750                       # Cumulative time (in ticks) in various power states (Tick)
system.ruby.dir_cntrl25.requestToDir.m_msg_count       484897                       # Number of messages passed the buffer (Count)
system.ruby.dir_cntrl25.requestToDir.m_buf_msgs     0.056449                       # Average number of messages in buffer ((Count/Tick))
system.ruby.dir_cntrl25.responseToDir.m_msg_count       146876                       # Number of messages passed the buffer (Count)
system.ruby.dir_cntrl25.responseToDir.m_buf_msgs     0.017099                       # Average number of messages in buffer ((Count/Tick))
system.ruby.dir_cntrl26.forwardToDir.m_msg_count       485630                       # Number of messages passed the buffer (Count)
system.ruby.dir_cntrl26.forwardToDir.m_buf_msgs     0.056535                       # Average number of messages in buffer ((Count/Tick))
system.ruby.dir_cntrl26.power_state.pwrStateResidencyTicks::UNDEFINED   2147483750                       # Cumulative time (in ticks) in various power states (Tick)
system.ruby.dir_cntrl26.requestToDir.m_msg_count       486958                       # Number of messages passed the buffer (Count)
system.ruby.dir_cntrl26.requestToDir.m_buf_msgs     0.056689                       # Average number of messages in buffer ((Count/Tick))
system.ruby.dir_cntrl26.responseToDir.m_msg_count       147341                       # Number of messages passed the buffer (Count)
system.ruby.dir_cntrl26.responseToDir.m_buf_msgs     0.017153                       # Average number of messages in buffer ((Count/Tick))
system.ruby.dir_cntrl27.forwardToDir.m_msg_count       485643                       # Number of messages passed the buffer (Count)
system.ruby.dir_cntrl27.forwardToDir.m_buf_msgs     0.056536                       # Average number of messages in buffer ((Count/Tick))
system.ruby.dir_cntrl27.power_state.pwrStateResidencyTicks::UNDEFINED   2147483750                       # Cumulative time (in ticks) in various power states (Tick)
[...]
system.ruby.network.sankey.vcvn35.vcvn5             0                       (Unspecified)
system.ruby.network.sankey.vcvn35.vcvn6             0                       (Unspecified)
system.ruby.network.sankey.vcvn35.vcvn7             0                       (Unspecified)
system.ruby.network.sankey.vcvn35.vcvn8             0                       (Unspecified)
system.ruby.network.sankey.vcvn35.vcvn9             0                       (Unspecified)
system.ruby.network.sankey.vcvn4.vcvn0        2051087                       (Unspecified)
system.ruby.network.sankey.vcvn4.vcvn1         620830                       (Unspecified)
system.ruby.network.sankey.vcvn4.vcvn10          6365                       (Unspecified)
system.ruby.network.sankey.vcvn4.vcvn11          6396                       (Unspecified)
system.ruby.network.sankey.vcvn4.vcvn12             0                       (Unspecified)
system.ruby.network.sankey.vcvn4.vcvn13             0                       (Unspecified)
system.ruby.network.sankey.vcvn4.vcvn14             0                       (Unspecified)
system.ruby.network.sankey.vcvn4.vcvn15             0                       (Unspecified)
system.ruby.network.sankey.vcvn4.vcvn16             0                       (Unspecified)
system.ruby.network.sankey.vcvn4.vcvn17             0                       (Unspecified)
system.ruby.network.sankey.vcvn4.vcvn18             0                       (Unspecified)
system.ruby.network.sankey.vcvn4.vcvn19             0                       (Unspecified)
system.ruby.network.sankey.vcvn4.vcvn2         114723                       (Unspecified)
system.ruby.network.sankey.vcvn4.vcvn20             0                       (Unspecified)
system.ruby.network.sankey.vcvn4.vcvn21             0                       (Unspecified)
system.ruby.network.sankey.vcvn4.vcvn22             0                       (Unspecified)
system.ruby.network.sankey.vcvn4.vcvn23             0                       (Unspecified)
system.ruby.network.sankey.vcvn4.vcvn24             0                       (Unspecified)
system.ruby.network.sankey.vcvn4.vcvn25             0                       (Unspecified)
system.ruby.network.sankey.vcvn4.vcvn26             0                       (Unspecified)
system.ruby.network.sankey.vcvn4.vcvn27             0                       (Unspecified)
system.ruby.network.sankey.vcvn4.vcvn28             0                       (Unspecified)
system.ruby.network.sankey.vcvn4.vcvn29             0                       (Unspecified)
system.ruby.network.sankey.vcvn4.vcvn3          13348                       (Unspecified)
system.ruby.network.sankey.vcvn4.vcvn30             0                       (Unspecified)
system.ruby.network.sankey.vcvn4.vcvn31             0                       (Unspecified)
system.ruby.network.sankey.vcvn4.vcvn32             0                       (Unspecified)
system.ruby.network.sankey.vcvn4.vcvn33             0                       (Unspecified)
system.ruby.network.sankey.vcvn4.vcvn34             0                       (Unspecified)
system.ruby.network.sankey.vcvn4.vcvn35             0                       (Unspecified)
system.ruby.network.sankey.vcvn4.vcvn4            780                       (Unspecified)
system.ruby.network.sankey.vcvn4.vcvn5              7                       (Unspecified)
system.ruby.network.sankey.vcvn4.vcvn6              0                       (Unspecified)
system.ruby.network.sankey.vcvn4.vcvn7              0                       (Unspecified)
system.ruby.network.sankey.vcvn4.vcvn8              0                       (Unspecified)
system.ruby.network.sankey.vcvn4.vcvn9              0                       (Unspecified)
system.ruby.network.sankey.vcvn5.vcvn0        2050556                       (Unspecified)
system.ruby.network.sankey.vcvn5.vcvn1         619843                       (Unspecified)
system.ruby.network.sankey.vcvn5.vcvn10          6593                       (Unspecified)
system.ruby.network.sankey.vcvn5.vcvn11          6359                       (Unspecified)
system.ruby.network.sankey.vcvn5.vcvn12             0                       (Unspecified)
system.ruby.network.sankey.vcvn5.vcvn13             0                       (Unspecified)
system.ruby.network.sankey.vcvn5.vcvn14             0                       (Unspecified)
system.ruby.network.sankey.vcvn5.vcvn15             0                       (Unspecified)
system.ruby.network.sankey.vcvn5.vcvn16             0                       (Unspecified)
system.ruby.network.sankey.vcvn5.vcvn17             0                       (Unspecified)
system.ruby.network.sankey.vcvn5.vcvn18             0                       (Unspecified)
system.ruby.network.sankey.vcvn5.vcvn19             0                       (Unspecified)
system.ruby.network.sankey.vcvn5.vcvn2         114923                       (Unspecified)
system.ruby.network.sankey.vcvn5.vcvn20             0                       (Unspecified)
system.ruby.network.sankey.vcvn5.vcvn21             0                       (Unspecified)
system.ruby.network.sankey.vcvn5.vcvn22             0                       (Unspecified)
system.ruby.network.sankey.vcvn5.vcvn23             0                       (Unspecified)
system.ruby.network.sankey.vcvn5.vcvn24             0                       (Unspecified)
system.ruby.network.sankey.vcvn5.vcvn25             0                       (Unspecified)
system.ruby.network.sankey.vcvn5.vcvn26             0                       (Unspecified)
system.ruby.network.sankey.vcvn5.vcvn27             0                       (Unspecified)
system.ruby.network.sankey.vcvn5.vcvn28             0                       (Unspecified)
system.ruby.network.sankey.vcvn5.vcvn29             0                       (Unspecified)
system.ruby.network.sankey.vcvn5.vcvn3          13229                       (Unspecified)
system.ruby.network.sankey.vcvn5.vcvn30             0                       (Unspecified)
system.ruby.network.sankey.vcvn5.vcvn31             0                       (Unspecified)
system.ruby.network.sankey.vcvn5.vcvn32             0                       (Unspecified)
system.ruby.network.sankey.vcvn5.vcvn33             0                       (Unspecified)
system.ruby.network.sankey.vcvn5.vcvn34             0                       (Unspecified)
system.ruby.network.sankey.vcvn5.vcvn35             0                       (Unspecified)
system.ruby.network.sankey.vcvn5.vcvn4            783                       (Unspecified)
system.ruby.network.sankey.vcvn5.vcvn5              8                       (Unspecified)
system.ruby.network.sankey.vcvn5.vcvn6              0                       (Unspecified)
system.ruby.network.sankey.vcvn5.vcvn7              0                       (Unspecified)
system.ruby.network.sankey.vcvn5.vcvn8              0                       (Unspecified)
system.ruby.network.sankey.vcvn5.vcvn9              0                       (Unspecified)
system.ruby.network.sankey.vcvn6.vcvn0        2049875                       (Unspecified)
system.ruby.network.sankey.vcvn6.vcvn1         619625                       (Unspecified)
system.ruby.network.sankey.vcvn6.vcvn10          6369                       (Unspecified)
system.ruby.network.sankey.vcvn6.vcvn11          6536                       (Unspecified)
system.ruby.network.sankey.vcvn6.vcvn12             0                       (Unspecified)
system.ruby.network.sankey.vcvn6.vcvn13             0                       (Unspecified)
system.ruby.network.sankey.vcvn6.vcvn14             0                       (Unspecified)
system.ruby.network.sankey.vcvn6.vcvn15             0                       (Unspecified)
system.ruby.network.sankey.vcvn6.vcvn16             0                       (Unspecified)
system.ruby.network.sankey.vcvn6.vcvn17             0                       (Unspecified)
system.ruby.network.sankey.vcvn6.vcvn18             0                       (Unspecified)
system.ruby.network.sankey.vcvn6.vcvn19             0                       (Unspecified)
system.ruby.network.sankey.vcvn6.vcvn2         114663                       (Unspecified)
system.ruby.network.sankey.vcvn6.vcvn20             0                       (Unspecified)
system.ruby.network.sankey.vcvn6.vcvn21             0                       (Unspecified)
system.ruby.network.sankey.vcvn6.vcvn22             0                       (Unspecified)
system.ruby.network.sankey.vcvn6.vcvn23             0                       (Unspecified)
system.ruby.network.sankey.vcvn6.vcvn24             0                       (Unspecified)
system.ruby.network.sankey.vcvn6.vcvn25             0                       (Unspecified)
system.ruby.network.sankey.vcvn6.vcvn26             0                       (Unspecified)
system.ruby.network.sankey.vcvn6.vcvn27             0                       (Unspecified)
system.ruby.network.sankey.vcvn6.vcvn28             0                       (Unspecified)
system.ruby.network.sankey.vcvn6.vcvn29             0                       (Unspecified)
system.ruby.network.sankey.vcvn6.vcvn3          13345                       (Unspecified)
system.ruby.network.sankey.vcvn6.vcvn30             0                       (Unspecified)
system.ruby.network.sankey.vcvn6.vcvn31             0                       (Unspecified)
system.ruby.network.sankey.vcvn6.vcvn32             0                       (Unspecified)
system.ruby.network.sankey.vcvn6.vcvn33             0                       (Unspecified)
system.ruby.network.sankey.vcvn6.vcvn34             0                       (Unspecified)
system.ruby.network.sankey.vcvn6.vcvn35             0                       (Unspecified)
system.ruby.network.sankey.vcvn6.vcvn4            804                       (Unspecified)
system.ruby.network.sankey.vcvn6.vcvn5              1                       (Unspecified)
system.ruby.network.sankey.vcvn6.vcvn6              0                       (Unspecified)
system.ruby.network.sankey.vcvn6.vcvn7              0                       (Unspecified)
system.ruby.network.sankey.vcvn6.vcvn8              0                       (Unspecified)
system.ruby.network.sankey.vcvn6.vcvn9              0                       (Unspecified)
system.ruby.network.sankey.vcvn7.vcvn0        2050749                       (Unspecified)
system.ruby.network.sankey.vcvn7.vcvn1         617511                       (Unspecified)
system.ruby.network.sankey.vcvn7.vcvn10          6545                       (Unspecified)
system.ruby.network.sankey.vcvn7.vcvn11          6427                       (Unspecified)
system.ruby.network.sankey.vcvn7.vcvn12             0                       (Unspecified)
system.ruby.network.sankey.vcvn7.vcvn13             0                       (Unspecified)
system.ruby.network.sankey.vcvn7.vcvn14             0                       (Unspecified)
system.ruby.network.sankey.vcvn7.vcvn15             0                       (Unspecified)
system.ruby.network.sankey.vcvn7.vcvn16             0                       (Unspecified)
system.ruby.network.sankey.vcvn7.vcvn17             0                       (Unspecified)
system.ruby.network.sankey.vcvn7.vcvn18             0                       (Unspecified)
system.ruby.network.sankey.vcvn7.vcvn19             0                       (Unspecified)
system.ruby.network.sankey.vcvn7.vcvn2         115195                       (Unspecified)
system.ruby.network.sankey.vcvn7.vcvn20             0                       (Unspecified)
system.ruby.network.sankey.vcvn7.vcvn21             0                       (Unspecified)
system.ruby.network.sankey.vcvn7.vcvn22             0                       (Unspecified)
system.ruby.network.sankey.vcvn7.vcvn23             0                       (Unspecified)
system.ruby.network.sankey.vcvn7.vcvn24             0                       (Unspecified)
system.ruby.network.sankey.vcvn7.vcvn25             0                       (Unspecified)
system.ruby.network.sankey.vcvn7.vcvn26             0                       (Unspecified)
system.ruby.network.sankey.vcvn7.vcvn27             0                       (Unspecified)
system.ruby.network.sankey.vcvn7.vcvn28             0                       (Unspecified)
system.ruby.network.sankey.vcvn7.vcvn29             0                       (Unspecified)
system.ruby.network.sankey.vcvn7.vcvn3          13443                       (Unspecified)
system.ruby.network.sankey.vcvn7.vcvn30             0                       (Unspecified)
system.ruby.network.sankey.vcvn7.vcvn31             0                       (Unspecified)
system.ruby.network.sankey.vcvn7.vcvn32             0                       (Unspecified)
system.ruby.network.sankey.vcvn7.vcvn33             0                       (Unspecified)
system.ruby.network.sankey.vcvn7.vcvn34             0                       (Unspecified)
system.ruby.network.sankey.vcvn7.vcvn35             0                       (Unspecified)
system.ruby.network.sankey.vcvn7.vcvn4            825                       (Unspecified)
system.ruby.network.sankey.vcvn7.vcvn5              7                       (Unspecified)
system.ruby.network.sankey.vcvn7.vcvn6              0                       (Unspecified)
system.ruby.network.sankey.vcvn7.vcvn7              0                       (Unspecified)
system.ruby.network.sankey.vcvn7.vcvn8              0                       (Unspecified)
system.ruby.network.sankey.vcvn7.vcvn9              0                       (Unspecified)
system.ruby.network.sankey.vcvn8.vcvn0        2049032                       (Unspecified)
system.ruby.network.sankey.vcvn8.vcvn1         619730                       (Unspecified)
system.ruby.network.sankey.vcvn8.vcvn10          6354                       (Unspecified)
system.ruby.network.sankey.vcvn8.vcvn11          6544                       (Unspecified)
system.ruby.network.sankey.vcvn8.vcvn12             0                       (Unspecified)
system.ruby.network.sankey.vcvn8.vcvn13             0                       (Unspecified)
system.ruby.network.sankey.vcvn8.vcvn14             0                       (Unspecified)
system.ruby.network.sankey.vcvn8.vcvn15             0                       (Unspecified)
system.ruby.network.sankey.vcvn8.vcvn16             0                       (Unspecified)
system.ruby.network.sankey.vcvn8.vcvn17             0                       (Unspecified)
system.ruby.network.sankey.vcvn8.vcvn18             0                       (Unspecified)
system.ruby.network.sankey.vcvn8.vcvn19             0                       (Unspecified)
system.ruby.network.sankey.vcvn8.vcvn2         114397                       (Unspecified)
system.ruby.network.sankey.vcvn8.vcvn20             0                       (Unspecified)
system.ruby.network.sankey.vcvn8.vcvn21             0                       (Unspecified)
system.ruby.network.sankey.vcvn8.vcvn22             0                       (Unspecified)
system.ruby.network.sankey.vcvn8.vcvn23             0                       (Unspecified)
system.ruby.network.sankey.vcvn8.vcvn24             0                       (Unspecified)
system.ruby.network.sankey.vcvn8.vcvn25             0                       (Unspecified)
system.ruby.network.sankey.vcvn8.vcvn26             0                       (Unspecified)
system.ruby.network.sankey.vcvn8.vcvn27             0                       (Unspecified)
system.ruby.network.sankey.vcvn8.vcvn28             0                       (Unspecified)
system.ruby.network.sankey.vcvn8.vcvn29             0                       (Unspecified)
system.ruby.network.sankey.vcvn8.vcvn3          13179                       (Unspecified)
system.ruby.network.sankey.vcvn8.vcvn30             0                       (Unspecified)
system.ruby.network.sankey.vcvn8.vcvn31             0                       (Unspecified)
system.ruby.network.sankey.vcvn8.vcvn32             0                       (Unspecified)
system.ruby.network.sankey.vcvn8.vcvn33             0                       (Unspecified)
system.ruby.network.sankey.vcvn8.vcvn34             0                       (Unspecified)
system.ruby.network.sankey.vcvn8.vcvn35             0                       (Unspecified)
system.ruby.network.sankey.vcvn8.vcvn4            826                       (Unspecified)
system.ruby.network.sankey.vcvn8.vcvn5              6                       (Unspecified)
system.ruby.network.sankey.vcvn8.vcvn6              0                       (Unspecified)
system.ruby.network.sankey.vcvn8.vcvn7              0                       (Unspecified)
system.ruby.network.sankey.vcvn8.vcvn8              0                       (Unspecified)
system.ruby.network.sankey.vcvn8.vcvn9              0                       (Unspecified)
system.ruby.network.sankey.vcvn9.vcvn0        2049349                       (Unspecified)
system.ruby.network.sankey.vcvn9.vcvn1         617947                       (Unspecified)
system.ruby.network.sankey.vcvn9.vcvn10          6596                       (Unspecified)
system.ruby.network.sankey.vcvn9.vcvn11          6527                       (Unspecified)
system.ruby.network.sankey.vcvn9.vcvn12             0                       (Unspecified)
system.ruby.network.sankey.vcvn9.vcvn13             0                       (Unspecified)
system.ruby.network.sankey.vcvn9.vcvn14             0                       (Unspecified)
system.ruby.network.sankey.vcvn9.vcvn15             0                       (Unspecified)
system.ruby.network.sankey.vcvn9.vcvn16             0                       (Unspecified)
system.ruby.network.sankey.vcvn9.vcvn17             0                       (Unspecified)
system.ruby.network.sankey.vcvn9.vcvn18             0                       (Unspecified)
system.ruby.network.sankey.vcvn9.vcvn19             0                       (Unspecified)
system.ruby.network.sankey.vcvn9.vcvn2         115153                       (Unspecified)
system.ruby.network.sankey.vcvn9.vcvn20             0                       (Unspecified)
system.ruby.network.sankey.vcvn9.vcvn21             0                       (Unspecified)
system.ruby.network.sankey.vcvn9.vcvn22             0                       (Unspecified)
system.ruby.network.sankey.vcvn9.vcvn23             0                       (Unspecified)
system.ruby.network.sankey.vcvn9.vcvn24             0                       (Unspecified)
system.ruby.network.sankey.vcvn9.vcvn25             0                       (Unspecified)
system.ruby.network.sankey.vcvn9.vcvn26             0                       (Unspecified)
system.ruby.network.sankey.vcvn9.vcvn27             0                       (Unspecified)
system.ruby.network.sankey.vcvn9.vcvn28             0                       (Unspecified)
system.ruby.network.sankey.vcvn9.vcvn29             0                       (Unspecified)
system.ruby.network.sankey.vcvn9.vcvn3          13305                       (Unspecified)
system.ruby.network.sankey.vcvn9.vcvn30             0                       (Unspecified)
system.ruby.network.sankey.vcvn9.vcvn31             0                       (Unspecified)
system.ruby.network.sankey.vcvn9.vcvn32             0                       (Unspecified)
system.ruby.network.sankey.vcvn9.vcvn33             0                       (Unspecified)
system.ruby.network.sankey.vcvn9.vcvn34             0                       (Unspecified)
system.ruby.network.sankey.vcvn9.vcvn35             0                       (Unspecified)
system.ruby.network.sankey.vcvn9.vcvn4            800                       (Unspecified)
system.ruby.network.sankey.vcvn9.vcvn5              9                       (Unspecified)
system.ruby.network.sankey.vcvn9.vcvn6              0                       (Unspecified)
system.ruby.network.sankey.vcvn9.vcvn7              0                       (Unspecified)
system.ruby.network.sankey.vcvn9.vcvn8              0                       (Unspecified)
system.ruby.network.sankey.vcvn9.vcvn9              0                       (Unspecified)

---------- End Simulation Statistics   ----------
