gem5 Simulator System.  https://www.gem5.org
gem5 is copyrighted software; use the --copyright option for details.

gem5 version 22.0.0.2
gem5 compiled Jun 17 2023 14:31:12
gem5 started Nov 18 2023 15:49:45
gem5 executing on mnemosyne14.ecn.purdue.edu, pid 23642
command line: ./build/Garnet_standalone/gem5.fast -d ./synth_outputs/simple/2b/mixed/mclb_hops_4_6_40cpus_4xdirs_4.0GHz/coh/lpbt_m_latop/0_17/ configs/auto_top/auto_top_synth.py --topology EscapeVirtualNetworks --noi_routers 20 --sim-cycles 2147483647 --injectionrate 0.17 --noc_clk 4.0GHz --sys-clock 4.0GHz --ruby-clock 4.0GHz --noi_clk 3.0GHz --router_map_file configs/topologies/paper_solutions/lpbt_m_latop.map --flat_vn_map_file configs/topologies/vn_maps_mclb/lpbt_m_latop_mclb_hops_4vns.vn --flat_nr_map_file configs/topologies/nr_list_mclb/lpbt_m_latop_mclb.nrl --ruby --mem_or_coh coh --mem-size 320000000 --num-dirs 160 --num-cpus 40 --network garnet --mem-type SimpleMemory --routing-algorithm 2 --use_escape_vns --synth_traffic --vcs-per-vnet 6 --evn_deadlock_partition 2 --evn_n_deadlock_free 1 --evn_min_n_deadlock_free 4

info: Standard input is not a terminal, disabling listeners.
ingesting configs/topologies/vn_maps_mclb/lpbt_m_latop_mclb_hops_4vns.vn
cpus(40)=[<m5.objects.GarnetSyntheticTraffic.GarnetSyntheticTraffic object at 0x7fc9548290f0>, <m5.objects.GarnetSyntheticTraffic.GarnetSyntheticTraffic object at 0x7fc954829dd8>, <m5.objects.GarnetSyntheticTraffic.GarnetSyntheticTraffic object at 0x7fc9543a50f0>, <m5.objects.GarnetSyntheticTraffic.GarnetSyntheticTraffic object at 0x7fc9543a53c8>, <m5.objects.GarnetSyntheticTraffic.GarnetSyntheticTraffic object at 0x7fc9543a56a0>, <m5.objects.GarnetSyntheticTraffic.GarnetSyntheticTraffic object at 0x7fc9543a5978>, <m5.objects.GarnetSyntheticTraffic.GarnetSyntheticTraffic object at 0x7fc9543a5c50>, <m5.objects.GarnetSyntheticTraffic.GarnetSyntheticTraffic object at 0x7fc9543a5f28>, <m5.objects.GarnetSyntheticTraffic.GarnetSyntheticTraffic object at 0x7fc9543ae240>, <m5.objects.GarnetSyntheticTraffic.GarnetSyntheticTraffic object at 0x7fc9543ae518>, <m5.objects.GarnetSyntheticTraffic.GarnetSyntheticTraffic object at 0x7fc9543ae7f0>, <m5.objects.GarnetSyntheticTraffic.GarnetSyntheticTraffic object at 0x7fc9543aeac8>, <m5.objects.GarnetSyntheticTraffic.GarnetSyntheticTraffic object at 0x7fc9548297b8>, <m5.objects.GarnetSyntheticTraffic.GarnetSyntheticTraffic object at 0x7fc954818e80>, <m5.objects.GarnetSyntheticTraffic.GarnetSyntheticTraffic object at 0x7fc954823668>, <m5.objects.GarnetSyntheticTraffic.GarnetSyntheticTraffic object at 0x7fc954823cc0>, <m5.objects.GarnetSyntheticTraffic.GarnetSyntheticTraffic object at 0x7fc9543aed30>, <m5.objects.GarnetSyntheticTraffic.GarnetSyntheticTraffic object at 0x7fc9543ba048>, <m5.objects.GarnetSyntheticTraffic.GarnetSyntheticTraffic object at 0x7fc9543ba320>, <m5.objects.GarnetSyntheticTraffic.GarnetSyntheticTraffic object at 0x7fc9543ba5f8>, <m5.objects.GarnetSyntheticTraffic.GarnetSyntheticTraffic object at 0x7fc9543ba8d0>, <m5.objects.GarnetSyntheticTraffic.GarnetSyntheticTraffic object at 0x7fc9543baba8>, <m5.objects.GarnetSyntheticTraffic.GarnetSyntheticTraffic object at 0x7fc9543bae80>, <m5.objects.GarnetSyntheticTraffic.GarnetSyntheticTraffic object at 0x7fc9543c1198>, <m5.objects.GarnetSyntheticTraffic.GarnetSyntheticTraffic object at 0x7fc9543c1470>, <m5.objects.GarnetSyntheticTraffic.GarnetSyntheticTraffic object at 0x7fc9543c1748>, <m5.objects.GarnetSyntheticTraffic.GarnetSyntheticTraffic object at 0x7fc9543c1a20>, <m5.objects.GarnetSyntheticTraffic.GarnetSyntheticTraffic object at 0x7fc9543c1cf8>, <m5.objects.GarnetSyntheticTraffic.GarnetSyntheticTraffic object at 0x7fc9543c1fd0>, <m5.objects.GarnetSyntheticTraffic.GarnetSyntheticTraffic object at 0x7fc9543c92e8>, <m5.objects.GarnetSyntheticTraffic.GarnetSyntheticTraffic object at 0x7fc9543c95c0>, <m5.objects.GarnetSyntheticTraffic.GarnetSyntheticTraffic object at 0x7fc9543c9898>, <m5.objects.GarnetSyntheticTraffic.GarnetSyntheticTraffic object at 0x7fc9543c9b70>, <m5.objects.GarnetSyntheticTraffic.GarnetSyntheticTraffic object at 0x7fc9543c9e48>, <m5.objects.GarnetSyntheticTraffic.GarnetSyntheticTraffic object at 0x7fc9543d2160>, <m5.objects.GarnetSyntheticTraffic.GarnetSyntheticTraffic object at 0x7fc9543d2438>, <m5.objects.GarnetSyntheticTraffic.GarnetSyntheticTraffic object at 0x7fc9543d2710>, <m5.objects.GarnetSyntheticTraffic.GarnetSyntheticTraffic object at 0x7fc9543d29e8>, <m5.objects.GarnetSyntheticTraffic.GarnetSyntheticTraffic object at 0x7fc9543d2cc0>, <m5.objects.GarnetSyntheticTraffic.GarnetSyntheticTraffic object at 0x7fc9543d2f98>])
ingesting configs/topologies/nr_list_mclb/lpbt_m_latop_mclb.nrl
ingesting configs/topologies/vn_maps_mclb/lpbt_m_latop_mclb_hops_4vns.vn
ext_cdc_required = True
