
---------- Begin Simulation Statistics ----------
simSeconds                                   0.002147                       # Number of seconds simulated (Second)
simTicks                                   2147483750                       # Number of ticks simulated (Tick)
finalTick                                  2147483750                       # Number of ticks from beginning of simulation (restored from checkpoints and never reset) (Tick)
simFreq                                  1000000000000                       # The number of ticks per simulated second ((Tick/Second))
hostSeconds                                   4345.44                       # Real time elapsed on the host (Second)
hostTickRate                                   494192                       # The number of ticks simulated per host second (ticks/s) ((Tick/Second))
hostMemory                                    1491488                       # Number of bytes of host memory used (Byte)
system.clk_domain.clock                           250                       # Clock period in ticks (Tick)
system.cpu0.power_state.pwrStateResidencyTicks::UNDEFINED   2147483750                       # Cumulative time (in ticks) in various power states (Tick)
system.cpu1.power_state.pwrStateResidencyTicks::UNDEFINED   2147483750                       # Cumulative time (in ticks) in various power states (Tick)
system.cpu10.power_state.pwrStateResidencyTicks::UNDEFINED   2147483750                       # Cumulative time (in ticks) in various power states (Tick)
system.cpu11.power_state.pwrStateResidencyTicks::UNDEFINED   2147483750                       # Cumulative time (in ticks) in various power states (Tick)
system.cpu12.power_state.pwrStateResidencyTicks::UNDEFINED   2147483750                       # Cumulative time (in ticks) in various power states (Tick)
system.cpu13.power_state.pwrStateResidencyTicks::UNDEFINED   2147483750                       # Cumulative time (in ticks) in various power states (Tick)
system.cpu14.power_state.pwrStateResidencyTicks::UNDEFINED   2147483750                       # Cumulative time (in ticks) in various power states (Tick)
system.cpu15.power_state.pwrStateResidencyTicks::UNDEFINED   2147483750                       # Cumulative time (in ticks) in various power states (Tick)
system.cpu16.power_state.pwrStateResidencyTicks::UNDEFINED   2147483750                       # Cumulative time (in ticks) in various power states (Tick)
system.cpu17.power_state.pwrStateResidencyTicks::UNDEFINED   2147483750                       # Cumulative time (in ticks) in various power states (Tick)
system.cpu18.power_state.pwrStateResidencyTicks::UNDEFINED   2147483750                       # Cumulative time (in ticks) in various power states (Tick)
system.cpu19.power_state.pwrStateResidencyTicks::UNDEFINED   2147483750                       # Cumulative time (in ticks) in various power states (Tick)
system.cpu2.power_state.pwrStateResidencyTicks::UNDEFINED   2147483750                       # Cumulative time (in ticks) in various power states (Tick)
system.cpu20.power_state.pwrStateResidencyTicks::UNDEFINED   2147483750                       # Cumulative time (in ticks) in various power states (Tick)
system.cpu21.power_state.pwrStateResidencyTicks::UNDEFINED   2147483750                       # Cumulative time (in ticks) in various power states (Tick)
system.cpu22.power_state.pwrStateResidencyTicks::UNDEFINED   2147483750                       # Cumulative time (in ticks) in various power states (Tick)
system.cpu23.power_state.pwrStateResidencyTicks::UNDEFINED   2147483750                       # Cumulative time (in ticks) in various power states (Tick)
system.cpu24.power_state.pwrStateResidencyTicks::UNDEFINED   2147483750                       # Cumulative time (in ticks) in various power states (Tick)
system.cpu25.power_state.pwrStateResidencyTicks::UNDEFINED   2147483750                       # Cumulative time (in ticks) in various power states (Tick)
system.cpu26.power_state.pwrStateResidencyTicks::UNDEFINED   2147483750                       # Cumulative time (in ticks) in various power states (Tick)
system.cpu27.power_state.pwrStateResidencyTicks::UNDEFINED   2147483750                       # Cumulative time (in ticks) in various power states (Tick)
system.cpu28.power_state.pwrStateResidencyTicks::UNDEFINED   2147483750                       # Cumulative time (in ticks) in various power states (Tick)
system.cpu29.power_state.pwrStateResidencyTicks::UNDEFINED   2147483750                       # Cumulative time (in ticks) in various power states (Tick)
system.cpu3.power_state.pwrStateResidencyTicks::UNDEFINED   2147483750                       # Cumulative time (in ticks) in various power states (Tick)
system.cpu30.power_state.pwrStateResidencyTicks::UNDEFINED   2147483750                       # Cumulative time (in ticks) in various power states (Tick)
system.cpu31.power_state.pwrStateResidencyTicks::UNDEFINED   2147483750                       # Cumulative time (in ticks) in various power states (Tick)
system.cpu32.power_state.pwrStateResidencyTicks::UNDEFINED   2147483750                       # Cumulative time (in ticks) in various power states (Tick)
system.cpu33.power_state.pwrStateResidencyTicks::UNDEFINED   2147483750                       # Cumulative time (in ticks) in various power states (Tick)
system.cpu34.power_state.pwrStateResidencyTicks::UNDEFINED   2147483750                       # Cumulative time (in ticks) in various power states (Tick)
system.cpu35.power_state.pwrStateResidencyTicks::UNDEFINED   2147483750                       # Cumulative time (in ticks) in various power states (Tick)
system.cpu36.power_state.pwrStateResidencyTicks::UNDEFINED   2147483750                       # Cumulative time (in ticks) in various power states (Tick)
system.cpu37.power_state.pwrStateResidencyTicks::UNDEFINED   2147483750                       # Cumulative time (in ticks) in various power states (Tick)
system.cpu38.power_state.pwrStateResidencyTicks::UNDEFINED   2147483750                       # Cumulative time (in ticks) in various power states (Tick)
system.cpu39.power_state.pwrStateResidencyTicks::UNDEFINED   2147483750                       # Cumulative time (in ticks) in various power states (Tick)
system.cpu4.power_state.pwrStateResidencyTicks::UNDEFINED   2147483750                       # Cumulative time (in ticks) in various power states (Tick)
system.cpu5.power_state.pwrStateResidencyTicks::UNDEFINED   2147483750                       # Cumulative time (in ticks) in various power states (Tick)
system.cpu6.power_state.pwrStateResidencyTicks::UNDEFINED   2147483750                       # Cumulative time (in ticks) in various power states (Tick)
system.cpu7.power_state.pwrStateResidencyTicks::UNDEFINED   2147483750                       # Cumulative time (in ticks) in various power states (Tick)
system.cpu8.power_state.pwrStateResidencyTicks::UNDEFINED   2147483750                       # Cumulative time (in ticks) in various power states (Tick)
system.cpu9.power_state.pwrStateResidencyTicks::UNDEFINED   2147483750                       # Cumulative time (in ticks) in various power states (Tick)
system.mem_ctrls0.power_state.pwrStateResidencyTicks::UNDEFINED   2147483750                       # Cumulative time (in ticks) in various power states (Tick)
system.mem_ctrls1.power_state.pwrStateResidencyTicks::UNDEFINED   2147483750                       # Cumulative time (in ticks) in various power states (Tick)
system.mem_ctrls10.power_state.pwrStateResidencyTicks::UNDEFINED   2147483750                       # Cumulative time (in ticks) in various power states (Tick)
system.mem_ctrls100.power_state.pwrStateResidencyTicks::UNDEFINED   2147483750                       # Cumulative time (in ticks) in various power states (Tick)
system.mem_ctrls101.power_state.pwrStateResidencyTicks::UNDEFINED   2147483750                       # Cumulative time (in ticks) in various power states (Tick)
system.mem_ctrls102.power_state.pwrStateResidencyTicks::UNDEFINED   2147483750                       # Cumulative time (in ticks) in various power states (Tick)
system.mem_ctrls103.power_state.pwrStateResidencyTicks::UNDEFINED   2147483750                       # Cumulative time (in ticks) in various power states (Tick)
system.mem_ctrls104.power_state.pwrStateResidencyTicks::UNDEFINED   2147483750                       # Cumulative time (in ticks) in various power states (Tick)
system.mem_ctrls105.power_state.pwrStateResidencyTicks::UNDEFINED   2147483750                       # Cumulative time (in ticks) in various power states (Tick)
system.mem_ctrls106.power_state.pwrStateResidencyTicks::UNDEFINED   2147483750                       # Cumulative time (in ticks) in various power states (Tick)
system.mem_ctrls107.power_state.pwrStateResidencyTicks::UNDEFINED   2147483750                       # Cumulative time (in ticks) in various power states (Tick)
system.mem_ctrls108.power_state.pwrStateResidencyTicks::UNDEFINED   2147483750                       # Cumulative time (in ticks) in various power states (Tick)
system.mem_ctrls109.power_state.pwrStateResidencyTicks::UNDEFINED   2147483750                       # Cumulative time (in ticks) in various power states (Tick)
system.mem_ctrls11.power_state.pwrStateResidencyTicks::UNDEFINED   2147483750                       # Cumulative time (in ticks) in various power states (Tick)
system.mem_ctrls110.power_state.pwrStateResidencyTicks::UNDEFINED   2147483750                       # Cumulative time (in ticks) in various power states (Tick)
system.mem_ctrls111.power_state.pwrStateResidencyTicks::UNDEFINED   2147483750                       # Cumulative time (in ticks) in various power states (Tick)
system.mem_ctrls112.power_state.pwrStateResidencyTicks::UNDEFINED   2147483750                       # Cumulative time (in ticks) in various power states (Tick)
system.mem_ctrls113.power_state.pwrStateResidencyTicks::UNDEFINED   2147483750                       # Cumulative time (in ticks) in various power states (Tick)
system.mem_ctrls114.power_state.pwrStateResidencyTicks::UNDEFINED   2147483750                       # Cumulative time (in ticks) in various power states (Tick)
system.mem_ctrls115.power_state.pwrStateResidencyTicks::UNDEFINED   2147483750                       # Cumulative time (in ticks) in various power states (Tick)
system.mem_ctrls116.power_state.pwrStateResidencyTicks::UNDEFINED   2147483750                       # Cumulative time (in ticks) in various power states (Tick)
system.mem_ctrls117.power_state.pwrStateResidencyTicks::UNDEFINED   2147483750                       # Cumulative time (in ticks) in various power states (Tick)
system.mem_ctrls118.power_state.pwrStateResidencyTicks::UNDEFINED   2147483750                       # Cumulative time (in ticks) in various power states (Tick)
system.mem_ctrls119.power_state.pwrStateResidencyTicks::UNDEFINED   2147483750                       # Cumulative time (in ticks) in various power states (Tick)
system.mem_ctrls12.power_state.pwrStateResidencyTicks::UNDEFINED   2147483750                       # Cumulative time (in ticks) in various power states (Tick)
system.mem_ctrls120.power_state.pwrStateResidencyTicks::UNDEFINED   2147483750                       # Cumulative time (in ticks) in various power states (Tick)
system.mem_ctrls121.power_state.pwrStateResidencyTicks::UNDEFINED   2147483750                       # Cumulative time (in ticks) in various power states (Tick)
system.mem_ctrls122.power_state.pwrStateResidencyTicks::UNDEFINED   2147483750                       # Cumulative time (in ticks) in various power states (Tick)
system.mem_ctrls123.power_state.pwrStateResidencyTicks::UNDEFINED   2147483750                       # Cumulative time (in ticks) in various power states (Tick)
system.mem_ctrls124.power_state.pwrStateResidencyTicks::UNDEFINED   2147483750                       # Cumulative time (in ticks) in various power states (Tick)
system.mem_ctrls125.power_state.pwrStateResidencyTicks::UNDEFINED   2147483750                       # Cumulative time (in ticks) in various power states (Tick)
system.mem_ctrls126.power_state.pwrStateResidencyTicks::UNDEFINED   2147483750                       # Cumulative time (in ticks) in various power states (Tick)
system.mem_ctrls127.power_state.pwrStateResidencyTicks::UNDEFINED   2147483750                       # Cumulative time (in ticks) in various power states (Tick)
system.mem_ctrls128.power_state.pwrStateResidencyTicks::UNDEFINED   2147483750                       # Cumulative time (in ticks) in various power states (Tick)
system.mem_ctrls129.power_state.pwrStateResidencyTicks::UNDEFINED   2147483750                       # Cumulative time (in ticks) in various power states (Tick)
system.mem_ctrls13.power_state.pwrStateResidencyTicks::UNDEFINED   2147483750                       # Cumulative time (in ticks) in various power states (Tick)
system.mem_ctrls130.power_state.pwrStateResidencyTicks::UNDEFINED   2147483750                       # Cumulative time (in ticks) in various power states (Tick)
system.mem_ctrls131.power_state.pwrStateResidencyTicks::UNDEFINED   2147483750                       # Cumulative time (in ticks) in various power states (Tick)
system.mem_ctrls132.power_state.pwrStateResidencyTicks::UNDEFINED   2147483750                       # Cumulative time (in ticks) in various power states (Tick)
system.mem_ctrls133.power_state.pwrStateResidencyTicks::UNDEFINED   2147483750                       # Cumulative time (in ticks) in various power states (Tick)
system.mem_ctrls134.power_state.pwrStateResidencyTicks::UNDEFINED   2147483750                       # Cumulative time (in ticks) in various power states (Tick)
system.mem_ctrls135.power_state.pwrStateResidencyTicks::UNDEFINED   2147483750                       # Cumulative time (in ticks) in various power states (Tick)
system.mem_ctrls136.power_state.pwrStateResidencyTicks::UNDEFINED   2147483750                       # Cumulative time (in ticks) in various power states (Tick)
system.mem_ctrls137.power_state.pwrStateResidencyTicks::UNDEFINED   2147483750                       # Cumulative time (in ticks) in various power states (Tick)
system.mem_ctrls138.power_state.pwrStateResidencyTicks::UNDEFINED   2147483750                       # Cumulative time (in ticks) in various power states (Tick)
system.mem_ctrls139.power_state.pwrStateResidencyTicks::UNDEFINED   2147483750                       # Cumulative time (in ticks) in various power states (Tick)
system.mem_ctrls14.power_state.pwrStateResidencyTicks::UNDEFINED   2147483750                       # Cumulative time (in ticks) in various power states (Tick)
system.mem_ctrls140.power_state.pwrStateResidencyTicks::UNDEFINED   2147483750                       # Cumulative time (in ticks) in various power states (Tick)
system.mem_ctrls141.power_state.pwrStateResidencyTicks::UNDEFINED   2147483750                       # Cumulative time (in ticks) in various power states (Tick)
system.mem_ctrls142.power_state.pwrStateResidencyTicks::UNDEFINED   2147483750                       # Cumulative time (in ticks) in various power states (Tick)
system.mem_ctrls143.power_state.pwrStateResidencyTicks::UNDEFINED   2147483750                       # Cumulative time (in ticks) in various power states (Tick)
system.mem_ctrls144.power_state.pwrStateResidencyTicks::UNDEFINED   2147483750                       # Cumulative time (in ticks) in various power states (Tick)
system.mem_ctrls145.power_state.pwrStateResidencyTicks::UNDEFINED   2147483750                       # Cumulative time (in ticks) in various power states (Tick)
system.mem_ctrls146.power_state.pwrStateResidencyTicks::UNDEFINED   2147483750                       # Cumulative time (in ticks) in various power states (Tick)
system.mem_ctrls147.power_state.pwrStateResidencyTicks::UNDEFINED   2147483750                       # Cumulative time (in ticks) in various power states (Tick)
system.mem_ctrls148.power_state.pwrStateResidencyTicks::UNDEFINED   2147483750                       # Cumulative time (in ticks) in various power states (Tick)
system.mem_ctrls149.power_state.pwrStateResidencyTicks::UNDEFINED   2147483750                       # Cumulative time (in ticks) in various power states (Tick)
system.mem_ctrls15.power_state.pwrStateResidencyTicks::UNDEFINED   2147483750                       # Cumulative time (in ticks) in various power states (Tick)
system.mem_ctrls150.power_state.pwrStateResidencyTicks::UNDEFINED   2147483750                       # Cumulative time (in ticks) in various power states (Tick)
system.mem_ctrls151.power_state.pwrStateResidencyTicks::UNDEFINED   2147483750                       # Cumulative time (in ticks) in various power states (Tick)
system.mem_ctrls152.power_state.pwrStateResidencyTicks::UNDEFINED   2147483750                       # Cumulative time (in ticks) in various power states (Tick)
system.mem_ctrls153.power_state.pwrStateResidencyTicks::UNDEFINED   2147483750                       # Cumulative time (in ticks) in various power states (Tick)
system.mem_ctrls154.power_state.pwrStateResidencyTicks::UNDEFINED   2147483750                       # Cumulative time (in ticks) in various power states (Tick)
system.mem_ctrls155.power_state.pwrStateResidencyTicks::UNDEFINED   2147483750                       # Cumulative time (in ticks) in various power states (Tick)
system.mem_ctrls156.power_state.pwrStateResidencyTicks::UNDEFINED   2147483750                       # Cumulative time (in ticks) in various power states (Tick)
system.mem_ctrls157.power_state.pwrStateResidencyTicks::UNDEFINED   2147483750                       # Cumulative time (in ticks) in various power states (Tick)
system.mem_ctrls158.power_state.pwrStateResidencyTicks::UNDEFINED   2147483750                       # Cumulative time (in ticks) in various power states (Tick)
system.mem_ctrls159.power_state.pwrStateResidencyTicks::UNDEFINED   2147483750                       # Cumulative time (in ticks) in various power states (Tick)
system.mem_ctrls16.power_state.pwrStateResidencyTicks::UNDEFINED   2147483750                       # Cumulative time (in ticks) in various power states (Tick)
system.mem_ctrls17.power_state.pwrStateResidencyTicks::UNDEFINED   2147483750                       # Cumulative time (in ticks) in various power states (Tick)
system.mem_ctrls18.power_state.pwrStateResidencyTicks::UNDEFINED   2147483750                       # Cumulative time (in ticks) in various power states (Tick)
system.mem_ctrls19.power_state.pwrStateResidencyTicks::UNDEFINED   2147483750                       # Cumulative time (in ticks) in various power states (Tick)
system.mem_ctrls2.power_state.pwrStateResidencyTicks::UNDEFINED   2147483750                       # Cumulative time (in ticks) in various power states (Tick)
system.mem_ctrls20.power_state.pwrStateResidencyTicks::UNDEFINED   2147483750                       # Cumulative time (in ticks) in various power states (Tick)
system.mem_ctrls21.power_state.pwrStateResidencyTicks::UNDEFINED   2147483750                       # Cumulative time (in ticks) in various power states (Tick)
system.mem_ctrls22.power_state.pwrStateResidencyTicks::UNDEFINED   2147483750                       # Cumulative time (in ticks) in various power states (Tick)
system.mem_ctrls23.power_state.pwrStateResidencyTicks::UNDEFINED   2147483750                       # Cumulative time (in ticks) in various power states (Tick)
system.mem_ctrls24.power_state.pwrStateResidencyTicks::UNDEFINED   2147483750                       # Cumulative time (in ticks) in various power states (Tick)
system.mem_ctrls25.power_state.pwrStateResidencyTicks::UNDEFINED   2147483750                       # Cumulative time (in ticks) in various power states (Tick)
system.mem_ctrls26.power_state.pwrStateResidencyTicks::UNDEFINED   2147483750                       # Cumulative time (in ticks) in various power states (Tick)
system.mem_ctrls27.power_state.pwrStateResidencyTicks::UNDEFINED   2147483750                       # Cumulative time (in ticks) in various power states (Tick)
system.mem_ctrls28.power_state.pwrStateResidencyTicks::UNDEFINED   2147483750                       # Cumulative time (in ticks) in various power states (Tick)
system.mem_ctrls29.power_state.pwrStateResidencyTicks::UNDEFINED   2147483750                       # Cumulative time (in ticks) in various power states (Tick)
system.mem_ctrls3.power_state.pwrStateResidencyTicks::UNDEFINED   2147483750                       # Cumulative time (in ticks) in various power states (Tick)
system.mem_ctrls30.power_state.pwrStateResidencyTicks::UNDEFINED   2147483750                       # Cumulative time (in ticks) in various power states (Tick)
system.mem_ctrls31.power_state.pwrStateResidencyTicks::UNDEFINED   2147483750                       # Cumulative time (in ticks) in various power states (Tick)
system.mem_ctrls32.power_state.pwrStateResidencyTicks::UNDEFINED   2147483750                       # Cumulative time (in ticks) in various power states (Tick)
system.mem_ctrls33.power_state.pwrStateResidencyTicks::UNDEFINED   2147483750                       # Cumulative time (in ticks) in various power states (Tick)
system.mem_ctrls34.power_state.pwrStateResidencyTicks::UNDEFINED   2147483750                       # Cumulative time (in ticks) in various power states (Tick)
system.mem_ctrls35.power_state.pwrStateResidencyTicks::UNDEFINED   2147483750                       # Cumulative time (in ticks) in various power states (Tick)
system.mem_ctrls36.power_state.pwrStateResidencyTicks::UNDEFINED   2147483750                       # Cumulative time (in ticks) in various power states (Tick)
system.mem_ctrls37.power_state.pwrStateResidencyTicks::UNDEFINED   2147483750                       # Cumulative time (in ticks) in various power states (Tick)
system.mem_ctrls38.power_state.pwrStateResidencyTicks::UNDEFINED   2147483750                       # Cumulative time (in ticks) in various power states (Tick)
system.mem_ctrls39.power_state.pwrStateResidencyTicks::UNDEFINED   2147483750                       # Cumulative time (in ticks) in various power states (Tick)
system.mem_ctrls4.power_state.pwrStateResidencyTicks::UNDEFINED   2147483750                       # Cumulative time (in ticks) in various power states (Tick)
system.mem_ctrls40.power_state.pwrStateResidencyTicks::UNDEFINED   2147483750                       # Cumulative time (in ticks) in various power states (Tick)
system.mem_ctrls41.power_state.pwrStateResidencyTicks::UNDEFINED   2147483750                       # Cumulative time (in ticks) in various power states (Tick)
system.mem_ctrls42.power_state.pwrStateResidencyTicks::UNDEFINED   2147483750                       # Cumulative time (in ticks) in various power states (Tick)
system.mem_ctrls43.power_state.pwrStateResidencyTicks::UNDEFINED   2147483750                       # Cumulative time (in ticks) in various power states (Tick)
system.mem_ctrls44.power_state.pwrStateResidencyTicks::UNDEFINED   2147483750                       # Cumulative time (in ticks) in various power states (Tick)
system.mem_ctrls45.power_state.pwrStateResidencyTicks::UNDEFINED   2147483750                       # Cumulative time (in ticks) in various power states (Tick)
system.mem_ctrls46.power_state.pwrStateResidencyTicks::UNDEFINED   2147483750                       # Cumulative time (in ticks) in various power states (Tick)
system.mem_ctrls47.power_state.pwrStateResidencyTicks::UNDEFINED   2147483750                       # Cumulative time (in ticks) in various power states (Tick)
system.mem_ctrls48.power_state.pwrStateResidencyTicks::UNDEFINED   2147483750                       # Cumulative time (in ticks) in various power states (Tick)
system.mem_ctrls49.power_state.pwrStateResidencyTicks::UNDEFINED   2147483750                       # Cumulative time (in ticks) in various power states (Tick)
system.mem_ctrls5.power_state.pwrStateResidencyTicks::UNDEFINED   2147483750                       # Cumulative time (in ticks) in various power states (Tick)
system.mem_ctrls50.power_state.pwrStateResidencyTicks::UNDEFINED   2147483750                       # Cumulative time (in ticks) in various power states (Tick)
system.mem_ctrls51.power_state.pwrStateResidencyTicks::UNDEFINED   2147483750                       # Cumulative time (in ticks) in various power states (Tick)
system.mem_ctrls52.power_state.pwrStateResidencyTicks::UNDEFINED   2147483750                       # Cumulative time (in ticks) in various power states (Tick)
system.mem_ctrls53.power_state.pwrStateResidencyTicks::UNDEFINED   2147483750                       # Cumulative time (in ticks) in various power states (Tick)
system.mem_ctrls54.power_state.pwrStateResidencyTicks::UNDEFINED   2147483750                       # Cumulative time (in ticks) in various power states (Tick)
system.mem_ctrls55.power_state.pwrStateResidencyTicks::UNDEFINED   2147483750                       # Cumulative time (in ticks) in various power states (Tick)
system.mem_ctrls56.power_state.pwrStateResidencyTicks::UNDEFINED   2147483750                       # Cumulative time (in ticks) in various power states (Tick)
system.mem_ctrls57.power_state.pwrStateResidencyTicks::UNDEFINED   2147483750                       # Cumulative time (in ticks) in various power states (Tick)
system.mem_ctrls58.power_state.pwrStateResidencyTicks::UNDEFINED   2147483750                       # Cumulative time (in ticks) in various power states (Tick)
system.mem_ctrls59.power_state.pwrStateResidencyTicks::UNDEFINED   2147483750                       # Cumulative time (in ticks) in various power states (Tick)
system.mem_ctrls6.power_state.pwrStateResidencyTicks::UNDEFINED   2147483750                       # Cumulative time (in ticks) in various power states (Tick)
system.mem_ctrls60.power_state.pwrStateResidencyTicks::UNDEFINED   2147483750                       # Cumulative time (in ticks) in various power states (Tick)
system.mem_ctrls61.power_state.pwrStateResidencyTicks::UNDEFINED   2147483750                       # Cumulative time (in ticks) in various power states (Tick)
system.mem_ctrls62.power_state.pwrStateResidencyTicks::UNDEFINED   2147483750                       # Cumulative time (in ticks) in various power states (Tick)
system.mem_ctrls63.power_state.pwrStateResidencyTicks::UNDEFINED   2147483750                       # Cumulative time (in ticks) in various power states (Tick)
system.mem_ctrls64.power_state.pwrStateResidencyTicks::UNDEFINED   2147483750                       # Cumulative time (in ticks) in various power states (Tick)
system.mem_ctrls65.power_state.pwrStateResidencyTicks::UNDEFINED   2147483750                       # Cumulative time (in ticks) in various power states (Tick)
system.mem_ctrls66.power_state.pwrStateResidencyTicks::UNDEFINED   2147483750                       # Cumulative time (in ticks) in various power states (Tick)
system.mem_ctrls67.power_state.pwrStateResidencyTicks::UNDEFINED   2147483750                       # Cumulative time (in ticks) in various power states (Tick)
system.mem_ctrls68.power_state.pwrStateResidencyTicks::UNDEFINED   2147483750                       # Cumulative time (in ticks) in various power states (Tick)
system.mem_ctrls69.power_state.pwrStateResidencyTicks::UNDEFINED   2147483750                       # Cumulative time (in ticks) in various power states (Tick)
system.mem_ctrls7.power_state.pwrStateResidencyTicks::UNDEFINED   2147483750                       # Cumulative time (in ticks) in various power states (Tick)
system.mem_ctrls70.power_state.pwrStateResidencyTicks::UNDEFINED   2147483750                       # Cumulative time (in ticks) in various power states (Tick)
system.mem_ctrls71.power_state.pwrStateResidencyTicks::UNDEFINED   2147483750                       # Cumulative time (in ticks) in various power states (Tick)
system.mem_ctrls72.power_state.pwrStateResidencyTicks::UNDEFINED   2147483750                       # Cumulative time (in ticks) in various power states (Tick)
system.mem_ctrls73.power_state.pwrStateResidencyTicks::UNDEFINED   2147483750                       # Cumulative time (in ticks) in various power states (Tick)
system.mem_ctrls74.power_state.pwrStateResidencyTicks::UNDEFINED   2147483750                       # Cumulative time (in ticks) in various power states (Tick)
system.mem_ctrls75.power_state.pwrStateResidencyTicks::UNDEFINED   2147483750                       # Cumulative time (in ticks) in various power states (Tick)
system.mem_ctrls76.power_state.pwrStateResidencyTicks::UNDEFINED   2147483750                       # Cumulative time (in ticks) in various power states (Tick)
system.mem_ctrls77.power_state.pwrStateResidencyTicks::UNDEFINED   2147483750                       # Cumulative time (in ticks) in various power states (Tick)
system.mem_ctrls78.power_state.pwrStateResidencyTicks::UNDEFINED   2147483750                       # Cumulative time (in ticks) in various power states (Tick)
system.mem_ctrls79.power_state.pwrStateResidencyTicks::UNDEFINED   2147483750                       # Cumulative time (in ticks) in various power states (Tick)
system.mem_ctrls8.power_state.pwrStateResidencyTicks::UNDEFINED   2147483750                       # Cumulative time (in ticks) in various power states (Tick)
system.mem_ctrls80.power_state.pwrStateResidencyTicks::UNDEFINED   2147483750                       # Cumulative time (in ticks) in various power states (Tick)
system.mem_ctrls81.power_state.pwrStateResidencyTicks::UNDEFINED   2147483750                       # Cumulative time (in ticks) in various power states (Tick)
system.mem_ctrls82.power_state.pwrStateResidencyTicks::UNDEFINED   2147483750                       # Cumulative time (in ticks) in various power states (Tick)
system.mem_ctrls83.power_state.pwrStateResidencyTicks::UNDEFINED   2147483750                       # Cumulative time (in ticks) in various power states (Tick)
system.mem_ctrls84.power_state.pwrStateResidencyTicks::UNDEFINED   2147483750                       # Cumulative time (in ticks) in various power states (Tick)
system.mem_ctrls85.power_state.pwrStateResidencyTicks::UNDEFINED   2147483750                       # Cumulative time (in ticks) in various power states (Tick)
system.mem_ctrls86.power_state.pwrStateResidencyTicks::UNDEFINED   2147483750                       # Cumulative time (in ticks) in various power states (Tick)
system.mem_ctrls87.power_state.pwrStateResidencyTicks::UNDEFINED   2147483750                       # Cumulative time (in ticks) in various power states (Tick)
system.mem_ctrls88.power_state.pwrStateResidencyTicks::UNDEFINED   2147483750                       # Cumulative time (in ticks) in various power states (Tick)
system.mem_ctrls89.power_state.pwrStateResidencyTicks::UNDEFINED   2147483750                       # Cumulative time (in ticks) in various power states (Tick)
system.mem_ctrls9.power_state.pwrStateResidencyTicks::UNDEFINED   2147483750                       # Cumulative time (in ticks) in various power states (Tick)
system.mem_ctrls90.power_state.pwrStateResidencyTicks::UNDEFINED   2147483750                       # Cumulative time (in ticks) in various power states (Tick)
system.mem_ctrls91.power_state.pwrStateResidencyTicks::UNDEFINED   2147483750                       # Cumulative time (in ticks) in various power states (Tick)
system.mem_ctrls92.power_state.pwrStateResidencyTicks::UNDEFINED   2147483750                       # Cumulative time (in ticks) in various power states (Tick)
system.mem_ctrls93.power_state.pwrStateResidencyTicks::UNDEFINED   2147483750                       # Cumulative time (in ticks) in various power states (Tick)
system.mem_ctrls94.power_state.pwrStateResidencyTicks::UNDEFINED   2147483750                       # Cumulative time (in ticks) in various power states (Tick)
system.mem_ctrls95.power_state.pwrStateResidencyTicks::UNDEFINED   2147483750                       # Cumulative time (in ticks) in various power states (Tick)
system.mem_ctrls96.power_state.pwrStateResidencyTicks::UNDEFINED   2147483750                       # Cumulative time (in ticks) in various power states (Tick)
system.mem_ctrls97.power_state.pwrStateResidencyTicks::UNDEFINED   2147483750                       # Cumulative time (in ticks) in various power states (Tick)
system.mem_ctrls98.power_state.pwrStateResidencyTicks::UNDEFINED   2147483750                       # Cumulative time (in ticks) in various power states (Tick)
system.mem_ctrls99.power_state.pwrStateResidencyTicks::UNDEFINED   2147483750                       # Cumulative time (in ticks) in various power states (Tick)
system.ruby.m_outstandReqHistSeqr::bucket_size            1                       (Unspecified)
system.ruby.m_outstandReqHistSeqr::max_bucket            9                       (Unspecified)
system.ruby.m_outstandReqHistSeqr::samples     24022735                       (Unspecified)
system.ruby.m_outstandReqHistSeqr::mean             1                       (Unspecified)
system.ruby.m_outstandReqHistSeqr::gmean            1                       (Unspecified)
system.ruby.m_outstandReqHistSeqr        |           0      0.00%      0.00% |    24022735    100.00%    100.00% |           0      0.00%    100.00% |           0      0.00%    100.00% |           0      0.00%    100.00% |           0      0.00%    100.00% |           0      0.00%    100.00% |           0      0.00%    100.00% |           0      0.00%    100.00% |           0      0.00%    100.00% (Unspecified)
system.ruby.m_outstandReqHistSeqr::total     24022735                       (Unspecified)
system.ruby.m_latencyHistSeqr::bucket_size            1                       (Unspecified)
system.ruby.m_latencyHistSeqr::max_bucket            9                       (Unspecified)
system.ruby.m_latencyHistSeqr::samples       24022730                       (Unspecified)
system.ruby.m_latencyHistSeqr::mean                 1                       (Unspecified)
system.ruby.m_latencyHistSeqr::gmean                1                       (Unspecified)
system.ruby.m_latencyHistSeqr            |           0      0.00%      0.00% |    24022730    100.00%    100.00% |           0      0.00%    100.00% |           0      0.00%    100.00% |           0      0.00%    100.00% |           0      0.00%    100.00% |           0      0.00%    100.00% |           0      0.00%    100.00% |           0      0.00%    100.00% |           0      0.00%    100.00% (Unspecified)
system.ruby.m_latencyHistSeqr::total         24022730                       (Unspecified)
system.ruby.m_hitLatencyHistSeqr::bucket_size            1                       (Unspecified)
system.ruby.m_hitLatencyHistSeqr::max_bucket            9                       (Unspecified)
system.ruby.m_hitLatencyHistSeqr::samples     24022730                       (Unspecified)
system.ruby.m_hitLatencyHistSeqr::mean              1                       (Unspecified)
system.ruby.m_hitLatencyHistSeqr::gmean             1                       (Unspecified)
system.ruby.m_hitLatencyHistSeqr         |           0      0.00%      0.00% |    24022730    100.00%    100.00% |           0      0.00%    100.00% |           0      0.00%    100.00% |           0      0.00%    100.00% |           0      0.00%    100.00% |           0      0.00%    100.00% |           0      0.00%    100.00% |           0      0.00%    100.00% |           0      0.00%    100.00% (Unspecified)
system.ruby.m_hitLatencyHistSeqr::total      24022730                       (Unspecified)
system.ruby.Directory_Controller.Receive_Request |       74765      0.62%      0.62% |       75013      0.62%      1.25% |       75014      0.62%      1.87% |       74957      0.62%      2.50% |       75147      0.63%      3.12% |       75099      0.63%      3.75% |       74883      0.62%      4.37% |       75346      0.63%      5.00% |       75657      0.63%      5.63% |       74993      0.62%      6.25% |       74728      0.62%      6.87% |       75022      0.62%      7.50% |       74965      0.62%      8.12% |       74678      0.62%      8.74% |       74912      0.62%      9.37% |       74839      0.62%      9.99% |       75034      0.62%     10.62% |       75218      0.63%     11.24% |       75165      0.63%     11.87% |       75249      0.63%     12.50% |       75281      0.63%     13.12% |       75044      0.62%     13.75% |       75398      0.63%     14.37% |       74895      0.62%     15.00% |       74942      0.62%     15.62% |       74968      0.62%     16.25% |       75119      0.63%     16.87% |       75504      0.63%     17.50% |       75089      0.63%     18.13% |       75407      0.63%     18.75% |       75272      0.63%     19.38% |       75140      0.63%     20.01% |       75262      0.63%     20.63% |       75053      0.62%     21.26% |       74657      0.62%     21.88% |       74994      0.62%     22.50% |       74914      0.62%     23.13% |       74816      0.62%     23.75% |       74835      0.62%     24.37% |       74916      0.62%     25.00% |       75277      0.63%     25.62% |       74994      0.62%     26.25% |       75163      0.63%     26.87% |       75310      0.63%     27.50% |       74765      0.62%     28.12% |       75224      0.63%     28.75% |       74945      0.62%     29.37% |       74879      0.62%     30.00% |       75179      0.63%     30.62% |       75245      0.63%     31.25% |       75106      0.63%     31.88% |       75084      0.63%     32.50% |       74961      0.62%     33.12% |       75190      0.63%     33.75% |       74893      0.62%     34.37% |       75219      0.63%     35.00% |       74644      0.62%     35.62% |       74954      0.62%     36.25% |       75026      0.62%     36.87% |       75180      0.63%     37.50% |       75138      0.63%     38.12% |       74568      0.62%     38.74% |       75044      0.62%     39.37% |       75137      0.63%     39.99% |       75138      0.63%     40.62% |       75058      0.62%     41.24% |       75140      0.63%     41.87% |       75167      0.63%     42.50% |       74753      0.62%     43.12% |       74979      0.62%     43.74% |       75032      0.62%     44.37% |       75128      0.63%     44.99% |       75242      0.63%     45.62% |       74797      0.62%     46.24% |       74936      0.62%     46.87% |       75370      0.63%     47.49% |       75437      0.63%     48.12% |       74768      0.62%     48.74% |       74920      0.62%     49.37% |       75083      0.63%     49.99% |       74904      0.62%     50.62% |       74728      0.62%     51.24% |       74661      0.62%     51.86% |       75293      0.63%     52.49% |       75029      0.62%     53.11% |       75039      0.62%     53.74% |       74841      0.62%     54.36% |       75421      0.63%     54.99% |       75826      0.63%     55.62% |       74905      0.62%     56.24% |       75036      0.62%     56.87% |       75448      0.63%     57.50% |       75463      0.63%     58.12% |       75044      0.62%     58.75% |       75355      0.63%     59.38% |       74785      0.62%     60.00% |       75175      0.63%     60.63% |       75055      0.62%     61.25% |       75001      0.62%     61.87% |       74988      0.62%     62.50% |       75272      0.63%     63.13% |       74850      0.62%     63.75% |       75107      0.63%     64.37% |       74944      0.62%     65.00% |       75173      0.63%     65.62% |       75009      0.62%     66.25% |       75088      0.63%     66.87% |       75034      0.62%     67.50% |       74876      0.62%     68.12% |       75119      0.63%     68.75% |       75181      0.63%     69.37% |       75314      0.63%     70.00% |       75117      0.63%     70.63% |       74855      0.62%     71.25% |       75352      0.63%     71.88% |       74743      0.62%     72.50% |       75371      0.63%     73.13% |       74757      0.62%     73.75% |       75279      0.63%     74.38% |       74816      0.62%     75.00% |       74234      0.62%     75.62% |       75089      0.63%     76.24% |       75080      0.63%     76.87% |       75195      0.63%     77.49% |       74976      0.62%     78.12% |       74973      0.62%     78.74% |       74741      0.62%     79.36% |       75260      0.63%     79.99% |       75187      0.63%     80.62% |       75041      0.62%     81.24% |       75039      0.62%     81.87% |       75317      0.63%     82.49% |       74615      0.62%     83.11% |       75113      0.63%     83.74% |       74838      0.62%     84.36% |       74962      0.62%     84.99% |       74325      0.62%     85.61% |       74671      0.62%     86.23% |       75192      0.63%     86.85% |       75323      0.63%     87.48% |       75463      0.63%     88.11% |       75118      0.63%     88.74% |       74860      0.62%     89.36% |       75163      0.63%     89.98% |       74356      0.62%     90.60% |       74916      0.62%     91.23% |       75215      0.63%     91.85% |       75164      0.63%     92.48% |       74995      0.62%     93.10% |       75358      0.63%     93.73% |       75286      0.63%     94.36% |       75002      0.62%     94.98% |       75477      0.63%     95.61% |       75318      0.63%     96.24% |       75323      0.63%     96.87% |       75582      0.63%     97.49% |       75262      0.63%     98.12% |       75011      0.62%     98.75% |       75513      0.63%     99.37% |       75130      0.63%    100.00% (Unspecified)
system.ruby.Directory_Controller.Receive_Request::total     12010200                       (Unspecified)
system.ruby.Directory_Controller.Receive_Response |       71110      0.62%      0.62% |       70947      0.62%      1.25% |       71538      0.63%      1.88% |       70805      0.62%      2.50% |       71109      0.62%      3.12% |       71071      0.62%      3.75% |       70690      0.62%      4.37% |       71452      0.63%      4.99% |       71520      0.63%      5.62% |       71199      0.63%      6.25% |       71467      0.63%      6.88% |       71660      0.63%      7.51% |       71014      0.62%      8.13% |       71217      0.63%      8.75% |       71063      0.62%      9.38% |       70568      0.62%     10.00% |       70710      0.62%     10.62% |       70821      0.62%     11.24% |       71003      0.62%     11.86% |       70866      0.62%     12.49% |       70780      0.62%     13.11% |       71380      0.63%     13.74% |       71318      0.63%     14.36% |       71009      0.62%     14.99% |       71403      0.63%     15.61% |       70893      0.62%     16.24% |       71400      0.63%     16.86% |       70977      0.62%     17.49% |       70627      0.62%     18.11% |       71188      0.63%     18.73% |       71054      0.62%     19.36% |       70897      0.62%     19.98% |       70957      0.62%     20.60% |       71346      0.63%     21.23% |       71468      0.63%     21.86% |       70788      0.62%     22.48% |       71468      0.63%     23.11% |       71123      0.62%     23.73% |       71271      0.63%     24.36% |       70937      0.62%     24.98% |       71354      0.63%     25.61% |       71192      0.63%     26.23% |       71228      0.63%     26.86% |       71256      0.63%     27.48% |       71373      0.63%     28.11% |       71546      0.63%     28.74% |       71294      0.63%     29.36% |       71648      0.63%     29.99% |       71089      0.62%     30.62% |       70455      0.62%     31.24% |       71056      0.62%     31.86% |       70870      0.62%     32.48% |       71083      0.62%     33.11% |       71342      0.63%     33.73% |       71229      0.63%     34.36% |       71378      0.63%     34.99% |       70953      0.62%     35.61% |       70792      0.62%     36.23% |       71678      0.63%     36.86% |       71436      0.63%     37.49% |       71125      0.62%     38.11% |       70893      0.62%     38.73% |       71248      0.63%     39.36% |       71326      0.63%     39.99% |       71093      0.62%     40.61% |       71179      0.63%     41.24% |       71397      0.63%     41.86% |       70934      0.62%     42.49% |       71150      0.62%     43.11% |       71147      0.62%     43.74% |       71404      0.63%     44.36% |       70926      0.62%     44.99% |       71057      0.62%     45.61% |       70539      0.62%     46.23% |       71434      0.63%     46.86% |       70920      0.62%     47.48% |       71026      0.62%     48.10% |       71480      0.63%     48.73% |       71105      0.62%     49.36% |       70845      0.62%     49.98% |       71354      0.63%     50.60% |       71268      0.63%     51.23% |       71242      0.63%     51.86% |       71217      0.63%     52.48% |       71075      0.62%     53.11% |       71245      0.63%     53.73% |       71047      0.62%     54.36% |       70999      0.62%     54.98% |       71290      0.63%     55.61% |       71024      0.62%     56.23% |       70739      0.62%     56.85% |       70882      0.62%     57.47% |       70892      0.62%     58.10% |       71223      0.63%     58.72% |       71122      0.62%     59.35% |       70982      0.62%     59.97% |       71309      0.63%     60.60% |       71505      0.63%     61.22% |       71270      0.63%     61.85% |       71218      0.63%     62.47% |       71479      0.63%     63.10% |       71622      0.63%     63.73% |       71684      0.63%     64.36% |       70891      0.62%     64.98% |       71135      0.62%     65.61% |       71735      0.63%     66.24% |       71157      0.62%     66.86% |       71095      0.62%     67.49% |       71124      0.62%     68.11% |       71096      0.62%     68.74% |       70896      0.62%     69.36% |       71149      0.62%     69.98% |       71726      0.63%     70.61% |       71340      0.63%     71.24% |       71227      0.63%     71.87% |       71500      0.63%     72.49% |       71277      0.63%     73.12% |       71191      0.63%     73.75% |       71439      0.63%     74.37% |       71047      0.62%     75.00% |       71294      0.63%     75.62% |       71183      0.63%     76.25% |       71098      0.62%     76.87% |       70966      0.62%     77.50% |       71379      0.63%     78.12% |       70962      0.62%     78.75% |       70933      0.62%     79.37% |       70958      0.62%     79.99% |       71414      0.63%     80.62% |       71141      0.62%     81.24% |       71267      0.63%     81.87% |       71066      0.62%     82.49% |       71273      0.63%     83.12% |       71297      0.63%     83.75% |       70969      0.62%     84.37% |       71175      0.63%     85.00% |       71490      0.63%     85.62% |       71040      0.62%     86.25% |       71036      0.62%     86.87% |       71442      0.63%     87.50% |       71224      0.63%     88.12% |       70778      0.62%     88.75% |       71083      0.62%     89.37% |       71212      0.63%     90.00% |       70745      0.62%     90.62% |       71527      0.63%     91.24% |       71368      0.63%     91.87% |       71381      0.63%     92.50% |       71102      0.62%     93.12% |       71366      0.63%     93.75% |       71226      0.63%     94.38% |       71294      0.63%     95.00% |       70852      0.62%     95.62% |       70997      0.62%     96.25% |       71338      0.63%     96.87% |       71124      0.62%     97.50% |       71273      0.63%     98.12% |       71149      0.62%     98.75% |       71314      0.63%     99.38% |       71128      0.62%    100.00% (Unspecified)
system.ruby.Directory_Controller.Receive_Response::total     11386171                       (Unspecified)
system.ruby.Directory_Controller.I.Receive_Request |       74765      0.62%      0.62% |       75013      0.62%      1.25% |       75014      0.62%      1.87% |       74957      0.62%      2.50% |       75147      0.63%      3.12% |       75099      0.63%      3.75% |       74883      0.62%      4.37% |       75346      0.63%      5.00% |       75657      0.63%      5.63% |       74993      0.62%      6.25% |       74728      0.62%      6.87% |       75022      0.62%      7.50% |       74965      0.62%      8.12% |       74678      0.62%      8.74% |       74912      0.62%      9.37% |       74839      0.62%      9.99% |       75034      0.62%     10.62% |       75218      0.63%     11.24% |       75165      0.63%     11.87% |       75249      0.63%     12.50% |       75281      0.63%     13.12% |       75044      0.62%     13.75% |       75398      0.63%     14.37% |       74895      0.62%     15.00% |       74942      0.62%     15.62% |       74968      0.62%     16.25% |       75119      0.63%     16.87% |       75504      0.63%     17.50% |       75089      0.63%     18.13% |       75407      0.63%     18.75% |       75272      0.63%     19.38% |       75140      0.63%     20.01% |       75262      0.63%     20.63% |       75053      0.62%     21.26% |       74657      0.62%     21.88% |       74994      0.62%     22.50% |       74914      0.62%     23.13% |       74816      0.62%     23.75% |       74835      0.62%     24.37% |       74916      0.62%     25.00% |       75277      0.63%     25.62% |       74994      0.62%     26.25% |       75163      0.63%     26.87% |       75310      0.63%     27.50% |       74765      0.62%     28.12% |       75224      0.63%     28.75% |       74945      0.62%     29.37% |       74879      0.62%     30.00% |       75179      0.63%     30.62% |       75245      0.63%     31.25% |       75106      0.63%     31.88% |       75084      0.63%     32.50% |       74961      0.62%     33.12% |       75190      0.63%     33.75% |       74893      0.62%     34.37% |       75219      0.63%     35.00% |       74644      0.62%     35.62% |       74954      0.62%     36.25% |       75026      0.62%     36.87% |       75180      0.63%     37.50% |       75138      0.63%     38.12% |       74568      0.62%     38.74% |       75044      0.62%     39.37% |       75137      0.63%     39.99% |       75138      0.63%     40.62% |       75058      0.62%     41.24% |       75140      0.63%     41.87% |       75167      0.63%     42.50% |       74753      0.62%     43.12% |       74979      0.62%     43.74% |       75032      0.62%     44.37% |       75128      0.63%     44.99% |       75242      0.63%     45.62% |       74797      0.62%     46.24% |       74936      0.62%     46.87% |       75370      0.63%     47.49% |       75437      0.63%     48.12% |       74768      0.62%     48.74% |       74920      0.62%     49.37% |       75083      0.63%     49.99% |       74904      0.62%     50.62% |       74728      0.62%     51.24% |       74661      0.62%     51.86% |       75293      0.63%     52.49% |       75029      0.62%     53.11% |       75039      0.62%     53.74% |       74841      0.62%     54.36% |       75421      0.63%     54.99% |       75826      0.63%     55.62% |       74905      0.62%     56.24% |       75036      0.62%     56.87% |       75448      0.63%     57.50% |       75463      0.63%     58.12% |       75044      0.62%     58.75% |       75355      0.63%     59.38% |       74785      0.62%     60.00% |       75175      0.63%     60.63% |       75055      0.62%     61.25% |       75001      0.62%     61.87% |       74988      0.62%     62.50% |       75272      0.63%     63.13% |       74850      0.62%     63.75% |       75107      0.63%     64.37% |       74944      0.62%     65.00% |       75173      0.63%     65.62% |       75009      0.62%     66.25% |       75088      0.63%     66.87% |       75034      0.62%     67.50% |       74876      0.62%     68.12% |       75119      0.63%     68.75% |       75181      0.63%     69.37% |       75314      0.63%     70.00% |       75117      0.63%     70.63% |       74855      0.62%     71.25% |       75352      0.63%     71.88% |       74743      0.62%     72.50% |       75371      0.63%     73.13% |       74757      0.62%     73.75% |       75279      0.63%     74.38% |       74816      0.62%     75.00% |       74234      0.62%     75.62% |       75089      0.63%     76.24% |       75080      0.63%     76.87% |       75195      0.63%     77.49% |       74976      0.62%     78.12% |       74973      0.62%     78.74% |       74741      0.62%     79.36% |       75260      0.63%     79.99% |       75187      0.63%     80.62% |       75041      0.62%     81.24% |       75039      0.62%     81.87% |       75317      0.63%     82.49% |       74615      0.62%     83.11% |       75113      0.63%     83.74% |       74838      0.62%     84.36% |       74962      0.62%     84.99% |       74325      0.62%     85.61% |       74671      0.62%     86.23% |       75192      0.63%     86.85% |       75323      0.63%     87.48% |       75463      0.63%     88.11% |       75118      0.63%     88.74% |       74860      0.62%     89.36% |       75163      0.63%     89.98% |       74356      0.62%     90.60% |       74916      0.62%     91.23% |       75215      0.63%     91.85% |       75164      0.63%     92.48% |       74995      0.62%     93.10% |       75358      0.63%     93.73% |       75286      0.63%     94.36% |       75002      0.62%     94.98% |       75477      0.63%     95.61% |       75318      0.63%     96.24% |       75323      0.63%     96.87% |       75582      0.63%     97.49% |       75262      0.63%     98.12% |       75011      0.62%     98.75% |       75513      0.63%     99.37% |       75130      0.63%    100.00% (Unspecified)
system.ruby.Directory_Controller.I.Receive_Request::total     12010200                       (Unspecified)
system.ruby.Directory_Controller.I.Receive_Response |       71110      0.62%      0.62% |       70947      0.62%      1.25% |       71538      0.63%      1.88% |       70805      0.62%      2.50% |       71109      0.62%      3.12% |       71071      0.62%      3.75% |       70690      0.62%      4.37% |       71452      0.63%      4.99% |       71520      0.63%      5.62% |       71199      0.63%      6.25% |       71467      0.63%      6.88% |       71660      0.63%      7.51% |       71014      0.62%      8.13% |       71217      0.63%      8.75% |       71063      0.62%      9.38% |       70568      0.62%     10.00% |       70710      0.62%     10.62% |       70821      0.62%     11.24% |       71003      0.62%     11.86% |       70866      0.62%     12.49% |       70780      0.62%     13.11% |       71380      0.63%     13.74% |       71318      0.63%     14.36% |       71009      0.62%     14.99% |       71403      0.63%     15.61% |       70893      0.62%     16.24% |       71400      0.63%     16.86% |       70977      0.62%     17.49% |       70627      0.62%     18.11% |       71188      0.63%     18.73% |       71054      0.62%     19.36% |       70897      0.62%     19.98% |       70957      0.62%     20.60% |       71346      0.63%     21.23% |       71468      0.63%     21.86% |       70788      0.62%     22.48% |       71468      0.63%     23.11% |       71123      0.62%     23.73% |       71271      0.63%     24.36% |       70937      0.62%     24.98% |       71354      0.63%     25.61% |       71192      0.63%     26.23% |       71228      0.63%     26.86% |       71256      0.63%     27.48% |       71373      0.63%     28.11% |       71546      0.63%     28.74% |       71294      0.63%     29.36% |       71648      0.63%     29.99% |       71089      0.62%     30.62% |       70455      0.62%     31.24% |       71056      0.62%     31.86% |       70870      0.62%     32.48% |       71083      0.62%     33.11% |       71342      0.63%     33.73% |       71229      0.63%     34.36% |       71378      0.63%     34.99% |       70953      0.62%     35.61% |       70792      0.62%     36.23% |       71678      0.63%     36.86% |       71436      0.63%     37.49% |       71125      0.62%     38.11% |       70893      0.62%     38.73% |       71248      0.63%     39.36% |       71326      0.63%     39.99% |       71093      0.62%     40.61% |       71179      0.63%     41.24% |       71397      0.63%     41.86% |       70934      0.62%     42.49% |       71150      0.62%     43.11% |       71147      0.62%     43.74% |       71404      0.63%     44.36% |       70926      0.62%     44.99% |       71057      0.62%     45.61% |       70539      0.62%     46.23% |       71434      0.63%     46.86% |       70920      0.62%     47.48% |       71026      0.62%     48.10% |       71480      0.63%     48.73% |       71105      0.62%     49.36% |       70845      0.62%     49.98% |       71354      0.63%     50.60% |       71268      0.63%     51.23% |       71242      0.63%     51.86% |       71217      0.63%     52.48% |       71075      0.62%     53.11% |       71245      0.63%     53.73% |       71047      0.62%     54.36% |       70999      0.62%     54.98% |       71290      0.63%     55.61% |       71024      0.62%     56.23% |       70739      0.62%     56.85% |       70882      0.62%     57.47% |       70892      0.62%     58.10% |       71223      0.63%     58.72% |       71122      0.62%     59.35% |       70982      0.62%     59.97% |       71309      0.63%     60.60% |       71505      0.63%     61.22% |       71270      0.63%     61.85% |       71218      0.63%     62.47% |       71479      0.63%     63.10% |       71622      0.63%     63.73% |       71684      0.63%     64.36% |       70891      0.62%     64.98% |       71135      0.62%     65.61% |       71735      0.63%     66.24% |       71157      0.62%     66.86% |       71095      0.62%     67.49% |       71124      0.62%     68.11% |       71096      0.62%     68.74% |       70896      0.62%     69.36% |       71149      0.62%     69.98% |       71726      0.63%     70.61% |       71340      0.63%     71.24% |       71227      0.63%     71.87% |       71500      0.63%     72.49% |       71277      0.63%     73.12% |       71191      0.63%     73.75% |       71439      0.63%     74.37% |       71047      0.62%     75.00% |       71294      0.63%     75.62% |       71183      0.63%     76.25% |       71098      0.62%     76.87% |       70966      0.62%     77.50% |       71379      0.63%     78.12% |       70962      0.62%     78.75% |       70933      0.62%     79.37% |       70958      0.62%     79.99% |       71414      0.63%     80.62% |       71141      0.62%     81.24% |       71267      0.63%     81.87% |       71066      0.62%     82.49% |       71273      0.63%     83.12% |       71297      0.63%     83.75% |       70969      0.62%     84.37% |       71175      0.63%     85.00% |       71490      0.63%     85.62% |       71040      0.62%     86.25% |       71036      0.62%     86.87% |       71442      0.63%     87.50% |       71224      0.63%     88.12% |       70778      0.62%     88.75% |       71083      0.62%     89.37% |       71212      0.63%     90.00% |       70745      0.62%     90.62% |       71527      0.63%     91.24% |       71368      0.63%     91.87% |       71381      0.63%     92.50% |       71102      0.62%     93.12% |       71366      0.63%     93.75% |       71226      0.63%     94.38% |       71294      0.63%     95.00% |       70852      0.62%     95.62% |       70997      0.62%     96.25% |       71338      0.63%     96.87% |       71124      0.62%     97.50% |       71273      0.63%     98.12% |       71149      0.62%     98.75% |       71314      0.63%     99.38% |       71128      0.62%    100.00% (Unspecified)
system.ruby.Directory_Controller.I.Receive_Response::total     11386171                       (Unspecified)
system.ruby.L1Cache_Controller.Request   |      301434      2.51%      2.51% |      300186      2.50%      5.01% |      299523      2.49%      7.50% |      299850      2.50%     10.00% |      300277      2.50%     12.50% |      301264      2.51%     15.01% |      300053      2.50%     17.51% |      299931      2.50%     20.00% |      299386      2.49%     22.50% |      299379      2.49%     24.99% |      300532      2.50%     27.49% |      300378      2.50%     29.99% |      300471      2.50%     32.49% |      299575      2.49%     34.99% |      299922      2.50%     37.49% |      300217      2.50%     39.99% |      299685      2.50%     42.48% |      300740      2.50%     44.98% |      300773      2.50%     47.49% |      300267      2.50%     49.99% |      299655      2.49%     52.48% |      299934      2.50%     54.98% |      299573      2.49%     57.48% |      301454      2.51%     59.99% |      300256      2.50%     62.49% |      300079      2.50%     64.98% |      300847      2.50%     67.49% |      300321      2.50%     69.99% |      300282      2.50%     72.49% |      299781      2.50%     74.99% |      301524      2.51%     77.50% |      300862      2.51%     80.00% |      301148      2.51%     82.51% |      299987      2.50%     85.01% |      300553      2.50%     87.51% |      300097      2.50%     90.01% |      299765      2.50%     92.50% |      299928      2.50%     95.00% |      299749      2.50%     97.50% |      300597      2.50%    100.00% (Unspecified)
system.ruby.L1Cache_Controller.Request::total     12010235                       (Unspecified)
system.ruby.L1Cache_Controller.Response  |      300864      2.50%      2.50% |      300521      2.50%      5.01% |      300136      2.50%      7.50% |      300795      2.50%     10.01% |      300139      2.50%     12.51% |      300620      2.50%     15.01% |      300254      2.50%     17.51% |      299505      2.49%     20.00% |      300359      2.50%     22.50% |      299868      2.50%     25.00% |      300062      2.50%     27.50% |      300225      2.50%     30.00% |      299726      2.50%     32.49% |      300399      2.50%     34.99% |      300855      2.50%     37.50% |      300258      2.50%     40.00% |      299835      2.50%     42.49% |      300442      2.50%     44.99% |      300116      2.50%     47.49% |      300538      2.50%     49.99% |      300885      2.50%     52.50% |      300577      2.50%     55.00% |      300335      2.50%     57.50% |      300126      2.50%     60.00% |      299982      2.50%     62.50% |      300974      2.51%     65.00% |      300614      2.50%     67.50% |      300891      2.50%     70.01% |      300372      2.50%     72.51% |      299901      2.50%     75.01% |      300332      2.50%     77.51% |      300236      2.50%     80.01% |      300180      2.50%     82.51% |      300218      2.50%     85.00% |      299853      2.50%     87.50% |      300357      2.50%     90.00% |      300923      2.51%     92.51% |      300331      2.50%     95.01% |      300148      2.50%     97.50% |      299743      2.50%    100.00% (Unspecified)
system.ruby.L1Cache_Controller.Response::total     12012495                       (Unspecified)
system.ruby.L1Cache_Controller.I.Request |      301434      2.51%      2.51% |      300186      2.50%      5.01% |      299523      2.49%      7.50% |      299850      2.50%     10.00% |      300277      2.50%     12.50% |      301264      2.51%     15.01% |      300053      2.50%     17.51% |      299931      2.50%     20.00% |      299386      2.49%     22.50% |      299379      2.49%     24.99% |      300532      2.50%     27.49% |      300378      2.50%     29.99% |      300471      2.50%     32.49% |      299575      2.49%     34.99% |      299922      2.50%     37.49% |      300217      2.50%     39.99% |      299685      2.50%     42.48% |      300740      2.50%     44.98% |      300773      2.50%     47.49% |      300267      2.50%     49.99% |      299655      2.49%     52.48% |      299934      2.50%     54.98% |      299573      2.49%     57.48% |      301454      2.51%     59.99% |      300256      2.50%     62.49% |      300079      2.50%     64.98% |      300847      2.50%     67.49% |      300321      2.50%     69.99% |      300282      2.50%     72.49% |      299781      2.50%     74.99% |      301524      2.51%     77.50% |      300862      2.51%     80.00% |      301148      2.51%     82.51% |      299987      2.50%     85.01% |      300553      2.50%     87.51% |      300097      2.50%     90.01% |      299765      2.50%     92.50% |      299928      2.50%     95.00% |      299749      2.50%     97.50% |      300597      2.50%    100.00% (Unspecified)
system.ruby.L1Cache_Controller.I.Request::total     12010235                       (Unspecified)
system.ruby.L1Cache_Controller.I.Response |      300864      2.50%      2.50% |      300521      2.50%      5.01% |      300136      2.50%      7.50% |      300795      2.50%     10.01% |      300139      2.50%     12.51% |      300620      2.50%     15.01% |      300254      2.50%     17.51% |      299505      2.49%     20.00% |      300359      2.50%     22.50% |      299868      2.50%     25.00% |      300062      2.50%     27.50% |      300225      2.50%     30.00% |      299726      2.50%     32.49% |      300399      2.50%     34.99% |      300855      2.50%     37.50% |      300258      2.50%     40.00% |      299835      2.50%     42.49% |      300442      2.50%     44.99% |      300116      2.50%     47.49% |      300538      2.50%     49.99% |      300885      2.50%     52.50% |      300577      2.50%     55.00% |      300335      2.50%     57.50% |      300126      2.50%     60.00% |      299982      2.50%     62.50% |      300974      2.51%     65.00% |      300614      2.50%     67.50% |      300891      2.50%     70.01% |      300372      2.50%     72.51% |      299901      2.50%     75.01% |      300332      2.50%     77.51% |      300236      2.50%     80.01% |      300180      2.50%     82.51% |      300218      2.50%     85.00% |      299853      2.50%     87.50% |      300357      2.50%     90.00% |      300923      2.51%     92.51% |      300331      2.50%     95.01% |      300148      2.50%     97.50% |      299743      2.50%    100.00% (Unspecified)
system.ruby.L1Cache_Controller.I.Response::total     12012495                       (Unspecified)
system.ruby.RequestType.LD.latency_hist_seqr::bucket_size            1                       (Unspecified)
system.ruby.RequestType.LD.latency_hist_seqr::max_bucket            9                       (Unspecified)
system.ruby.RequestType.LD.latency_hist_seqr::samples     12010235                       (Unspecified)
system.ruby.RequestType.LD.latency_hist_seqr::mean            1                       (Unspecified)
system.ruby.RequestType.LD.latency_hist_seqr::gmean            1                       (Unspecified)
system.ruby.RequestType.LD.latency_hist_seqr |           0      0.00%      0.00% |    12010235    100.00%    100.00% |           0      0.00%    100.00% |           0      0.00%    100.00% |           0      0.00%    100.00% |           0      0.00%    100.00% |           0      0.00%    100.00% |           0      0.00%    100.00% |           0      0.00%    100.00% |           0      0.00%    100.00% (Unspecified)
system.ruby.RequestType.LD.latency_hist_seqr::total     12010235                       (Unspecified)
system.ruby.RequestType.LD.hit_latency_hist_seqr::bucket_size            1                       (Unspecified)
system.ruby.RequestType.LD.hit_latency_hist_seqr::max_bucket            9                       (Unspecified)
system.ruby.RequestType.LD.hit_latency_hist_seqr::samples     12010235                       (Unspecified)
system.ruby.RequestType.LD.hit_latency_hist_seqr::mean            1                       (Unspecified)
system.ruby.RequestType.LD.hit_latency_hist_seqr::gmean            1                       (Unspecified)
system.ruby.RequestType.LD.hit_latency_hist_seqr |           0      0.00%      0.00% |    12010235    100.00%    100.00% |           0      0.00%    100.00% |           0      0.00%    100.00% |           0      0.00%    100.00% |           0      0.00%    100.00% |           0      0.00%    100.00% |           0      0.00%    100.00% |           0      0.00%    100.00% |           0      0.00%    100.00% (Unspecified)
system.ruby.RequestType.LD.hit_latency_hist_seqr::total     12010235                       (Unspecified)
system.ruby.RequestType.ST.latency_hist_seqr::bucket_size            1                       (Unspecified)
system.ruby.RequestType.ST.latency_hist_seqr::max_bucket            9                       (Unspecified)
system.ruby.RequestType.ST.latency_hist_seqr::samples     12012495                       (Unspecified)
system.ruby.RequestType.ST.latency_hist_seqr::mean            1                       (Unspecified)
system.ruby.RequestType.ST.latency_hist_seqr::gmean            1                       (Unspecified)
system.ruby.RequestType.ST.latency_hist_seqr |           0      0.00%      0.00% |    12012495    100.00%    100.00% |           0      0.00%    100.00% |           0      0.00%    100.00% |           0      0.00%    100.00% |           0      0.00%    100.00% |           0      0.00%    100.00% |           0      0.00%    100.00% |           0      0.00%    100.00% |           0      0.00%    100.00% (Unspecified)
system.ruby.RequestType.ST.latency_hist_seqr::total     12012495                       (Unspecified)
system.ruby.RequestType.ST.hit_latency_hist_seqr::bucket_size            1                       (Unspecified)
system.ruby.RequestType.ST.hit_latency_hist_seqr::max_bucket            9                       (Unspecified)
system.ruby.RequestType.ST.hit_latency_hist_seqr::samples     12012495                       (Unspecified)
system.ruby.RequestType.ST.hit_latency_hist_seqr::mean            1                       (Unspecified)
system.ruby.RequestType.ST.hit_latency_hist_seqr::gmean            1                       (Unspecified)
system.ruby.RequestType.ST.hit_latency_hist_seqr |           0      0.00%      0.00% |    12012495    100.00%    100.00% |           0      0.00%    100.00% |           0      0.00%    100.00% |           0      0.00%    100.00% |           0      0.00%    100.00% |           0      0.00%    100.00% |           0      0.00%    100.00% |           0      0.00%    100.00% |           0      0.00%    100.00% (Unspecified)
system.ruby.RequestType.ST.hit_latency_hist_seqr::total     12012495                       (Unspecified)
system.ruby.clk_domain.clock                      250                       # Clock period in ticks (Tick)
system.ruby.dir_cntrl0.power_state.pwrStateResidencyTicks::UNDEFINED   2147483750                       # Cumulative time (in ticks) in various power states (Tick)
system.ruby.dir_cntrl0.requestToDir.m_msg_count        74765                       # Number of messages passed the buffer (Count)
system.ruby.dir_cntrl0.requestToDir.m_buf_msgs     0.008704                       # Average number of messages in buffer ((Count/Tick))
system.ruby.dir_cntrl0.responseToDir.m_msg_count        71110                       # Number of messages passed the buffer (Count)
system.ruby.dir_cntrl0.responseToDir.m_buf_msgs     0.008278                       # Average number of messages in buffer ((Count/Tick))
system.ruby.dir_cntrl1.power_state.pwrStateResidencyTicks::UNDEFINED   2147483750                       # Cumulative time (in ticks) in various power states (Tick)
system.ruby.dir_cntrl1.requestToDir.m_msg_count        75013                       # Number of messages passed the buffer (Count)
system.ruby.dir_cntrl1.requestToDir.m_buf_msgs     0.008733                       # Average number of messages in buffer ((Count/Tick))
system.ruby.dir_cntrl1.responseToDir.m_msg_count        70947                       # Number of messages passed the buffer (Count)
system.ruby.dir_cntrl1.responseToDir.m_buf_msgs     0.008259                       # Average number of messages in buffer ((Count/Tick))
system.ruby.dir_cntrl10.power_state.pwrStateResidencyTicks::UNDEFINED   2147483750                       # Cumulative time (in ticks) in various power states (Tick)
system.ruby.dir_cntrl10.requestToDir.m_msg_count        74728                       # Number of messages passed the buffer (Count)
system.ruby.dir_cntrl10.requestToDir.m_buf_msgs     0.008699                       # Average number of messages in buffer ((Count/Tick))
system.ruby.dir_cntrl10.responseToDir.m_msg_count        71467                       # Number of messages passed the buffer (Count)
system.ruby.dir_cntrl10.responseToDir.m_buf_msgs     0.008320                       # Average number of messages in buffer ((Count/Tick))
system.ruby.dir_cntrl100.power_state.pwrStateResidencyTicks::UNDEFINED   2147483750                       # Cumulative time (in ticks) in various power states (Tick)
system.ruby.dir_cntrl100.requestToDir.m_msg_count        75272                       # Number of messages passed the buffer (Count)
system.ruby.dir_cntrl100.requestToDir.m_buf_msgs     0.008763                       # Average number of messages in buffer ((Count/Tick))
system.ruby.dir_cntrl100.responseToDir.m_msg_count        71479                       # Number of messages passed the buffer (Count)
system.ruby.dir_cntrl100.responseToDir.m_buf_msgs     0.008321                       # Average number of messages in buffer ((Count/Tick))
system.ruby.dir_cntrl101.power_state.pwrStateResidencyTicks::UNDEFINED   2147483750                       # Cumulative time (in ticks) in various power states (Tick)
system.ruby.dir_cntrl101.requestToDir.m_msg_count        74850                       # Number of messages passed the buffer (Count)
system.ruby.dir_cntrl101.requestToDir.m_buf_msgs     0.008714                       # Average number of messages in buffer ((Count/Tick))
system.ruby.dir_cntrl101.responseToDir.m_msg_count        71622                       # Number of messages passed the buffer (Count)
system.ruby.dir_cntrl101.responseToDir.m_buf_msgs     0.008338                       # Average number of messages in buffer ((Count/Tick))
system.ruby.dir_cntrl102.power_state.pwrStateResidencyTicks::UNDEFINED   2147483750                       # Cumulative time (in ticks) in various power states (Tick)
system.ruby.dir_cntrl102.requestToDir.m_msg_count        75107                       # Number of messages passed the buffer (Count)
system.ruby.dir_cntrl102.requestToDir.m_buf_msgs     0.008744                       # Average number of messages in buffer ((Count/Tick))
system.ruby.dir_cntrl102.responseToDir.m_msg_count        71684                       # Number of messages passed the buffer (Count)
system.ruby.dir_cntrl102.responseToDir.m_buf_msgs     0.008345                       # Average number of messages in buffer ((Count/Tick))
system.ruby.dir_cntrl103.power_state.pwrStateResidencyTicks::UNDEFINED   2147483750                       # Cumulative time (in ticks) in various power states (Tick)
system.ruby.dir_cntrl103.requestToDir.m_msg_count        74944                       # Number of messages passed the buffer (Count)
system.ruby.dir_cntrl103.requestToDir.m_buf_msgs     0.008725                       # Average number of messages in buffer ((Count/Tick))
system.ruby.dir_cntrl103.responseToDir.m_msg_count        70891                       # Number of messages passed the buffer (Count)
system.ruby.dir_cntrl103.responseToDir.m_buf_msgs     0.008253                       # Average number of messages in buffer ((Count/Tick))
system.ruby.dir_cntrl104.power_state.pwrStateResidencyTicks::UNDEFINED   2147483750                       # Cumulative time (in ticks) in various power states (Tick)
system.ruby.dir_cntrl104.requestToDir.m_msg_count        75173                       # Number of messages passed the buffer (Count)
system.ruby.dir_cntrl104.requestToDir.m_buf_msgs     0.008751                       # Average number of messages in buffer ((Count/Tick))
system.ruby.dir_cntrl104.responseToDir.m_msg_count        71135                       # Number of messages passed the buffer (Count)
system.ruby.dir_cntrl104.responseToDir.m_buf_msgs     0.008281                       # Average number of messages in buffer ((Count/Tick))
system.ruby.dir_cntrl105.power_state.pwrStateResidencyTicks::UNDEFINED   2147483750                       # Cumulative time (in ticks) in various power states (Tick)
system.ruby.dir_cntrl105.requestToDir.m_msg_count        75009                       # Number of messages passed the buffer (Count)
system.ruby.dir_cntrl105.requestToDir.m_buf_msgs     0.008732                       # Average number of messages in buffer ((Count/Tick))
system.ruby.dir_cntrl105.responseToDir.m_msg_count        71735                       # Number of messages passed the buffer (Count)
system.ruby.dir_cntrl105.responseToDir.m_buf_msgs     0.008351                       # Average number of messages in buffer ((Count/Tick))
system.ruby.dir_cntrl106.power_state.pwrStateResidencyTicks::UNDEFINED   2147483750                       # Cumulative time (in ticks) in various power states (Tick)
system.ruby.dir_cntrl106.requestToDir.m_msg_count        75088                       # Number of messages passed the buffer (Count)
system.ruby.dir_cntrl106.requestToDir.m_buf_msgs     0.008741                       # Average number of messages in buffer ((Count/Tick))
system.ruby.dir_cntrl106.responseToDir.m_msg_count        71157                       # Number of messages passed the buffer (Count)
system.ruby.dir_cntrl106.responseToDir.m_buf_msgs     0.008284                       # Average number of messages in buffer ((Count/Tick))
system.ruby.dir_cntrl107.power_state.pwrStateResidencyTicks::UNDEFINED   2147483750                       # Cumulative time (in ticks) in various power states (Tick)
system.ruby.dir_cntrl107.requestToDir.m_msg_count        75034                       # Number of messages passed the buffer (Count)
system.ruby.dir_cntrl107.requestToDir.m_buf_msgs     0.008735                       # Average number of messages in buffer ((Count/Tick))
system.ruby.dir_cntrl107.responseToDir.m_msg_count        71095                       # Number of messages passed the buffer (Count)
system.ruby.dir_cntrl107.responseToDir.m_buf_msgs     0.008277                       # Average number of messages in buffer ((Count/Tick))
system.ruby.dir_cntrl108.power_state.pwrStateResidencyTicks::UNDEFINED   2147483750                       # Cumulative time (in ticks) in various power states (Tick)
system.ruby.dir_cntrl108.requestToDir.m_msg_count        74876                       # Number of messages passed the buffer (Count)
system.ruby.dir_cntrl108.requestToDir.m_buf_msgs     0.008717                       # Average number of messages in buffer ((Count/Tick))
system.ruby.dir_cntrl108.responseToDir.m_msg_count        71124                       # Number of messages passed the buffer (Count)
system.ruby.dir_cntrl108.responseToDir.m_buf_msgs     0.008280                       # Average number of messages in buffer ((Count/Tick))
system.ruby.dir_cntrl109.power_state.pwrStateResidencyTicks::UNDEFINED   2147483750                       # Cumulative time (in ticks) in various power states (Tick)
system.ruby.dir_cntrl109.requestToDir.m_msg_count        75119                       # Number of messages passed the buffer (Count)
system.ruby.dir_cntrl109.requestToDir.m_buf_msgs     0.008745                       # Average number of messages in buffer ((Count/Tick))
system.ruby.dir_cntrl109.responseToDir.m_msg_count        71096                       # Number of messages passed the buffer (Count)
system.ruby.dir_cntrl109.responseToDir.m_buf_msgs     0.008277                       # Average number of messages in buffer ((Count/Tick))
system.ruby.dir_cntrl11.power_state.pwrStateResidencyTicks::UNDEFINED   2147483750                       # Cumulative time (in ticks) in various power states (Tick)
system.ruby.dir_cntrl11.requestToDir.m_msg_count        75022                       # Number of messages passed the buffer (Count)
system.ruby.dir_cntrl11.requestToDir.m_buf_msgs     0.008734                       # Average number of messages in buffer ((Count/Tick))
system.ruby.dir_cntrl11.responseToDir.m_msg_count        71660                       # Number of messages passed the buffer (Count)
[...]
system.ruby.network.sankey.vcvn13.vcvn5             0                       (Unspecified)
system.ruby.network.sankey.vcvn13.vcvn6             0                       (Unspecified)
system.ruby.network.sankey.vcvn13.vcvn7             0                       (Unspecified)
system.ruby.network.sankey.vcvn13.vcvn8             0                       (Unspecified)
system.ruby.network.sankey.vcvn13.vcvn9             0                       (Unspecified)
system.ruby.network.sankey.vcvn14.vcvn0             0                       (Unspecified)
system.ruby.network.sankey.vcvn14.vcvn1             0                       (Unspecified)
system.ruby.network.sankey.vcvn14.vcvn10            0                       (Unspecified)
system.ruby.network.sankey.vcvn14.vcvn11            0                       (Unspecified)
system.ruby.network.sankey.vcvn14.vcvn12      8334448                       (Unspecified)
system.ruby.network.sankey.vcvn14.vcvn13      1152335                       (Unspecified)
system.ruby.network.sankey.vcvn14.vcvn14        86835                       (Unspecified)
system.ruby.network.sankey.vcvn14.vcvn15         4015                       (Unspecified)
system.ruby.network.sankey.vcvn14.vcvn16       595540                       (Unspecified)
system.ruby.network.sankey.vcvn14.vcvn17       633400                       (Unspecified)
system.ruby.network.sankey.vcvn14.vcvn2             0                       (Unspecified)
system.ruby.network.sankey.vcvn14.vcvn3             0                       (Unspecified)
system.ruby.network.sankey.vcvn14.vcvn4             0                       (Unspecified)
system.ruby.network.sankey.vcvn14.vcvn5             0                       (Unspecified)
system.ruby.network.sankey.vcvn14.vcvn6             0                       (Unspecified)
system.ruby.network.sankey.vcvn14.vcvn7             0                       (Unspecified)
system.ruby.network.sankey.vcvn14.vcvn8             0                       (Unspecified)
system.ruby.network.sankey.vcvn14.vcvn9             0                       (Unspecified)
system.ruby.network.sankey.vcvn15.vcvn0             0                       (Unspecified)
system.ruby.network.sankey.vcvn15.vcvn1             0                       (Unspecified)
system.ruby.network.sankey.vcvn15.vcvn10            0                       (Unspecified)
system.ruby.network.sankey.vcvn15.vcvn11            0                       (Unspecified)
system.ruby.network.sankey.vcvn15.vcvn12      7794117                       (Unspecified)
system.ruby.network.sankey.vcvn15.vcvn13      1081320                       (Unspecified)
system.ruby.network.sankey.vcvn15.vcvn14        80395                       (Unspecified)
system.ruby.network.sankey.vcvn15.vcvn15         4020                       (Unspecified)
system.ruby.network.sankey.vcvn15.vcvn16       592585                       (Unspecified)
system.ruby.network.sankey.vcvn15.vcvn17       589315                       (Unspecified)
system.ruby.network.sankey.vcvn15.vcvn2             0                       (Unspecified)
system.ruby.network.sankey.vcvn15.vcvn3             0                       (Unspecified)
system.ruby.network.sankey.vcvn15.vcvn4             0                       (Unspecified)
system.ruby.network.sankey.vcvn15.vcvn5             0                       (Unspecified)
system.ruby.network.sankey.vcvn15.vcvn6             0                       (Unspecified)
system.ruby.network.sankey.vcvn15.vcvn7             0                       (Unspecified)
system.ruby.network.sankey.vcvn15.vcvn8             0                       (Unspecified)
system.ruby.network.sankey.vcvn15.vcvn9             0                       (Unspecified)
system.ruby.network.sankey.vcvn16.vcvn0             0                       (Unspecified)
system.ruby.network.sankey.vcvn16.vcvn1             0                       (Unspecified)
system.ruby.network.sankey.vcvn16.vcvn10            0                       (Unspecified)
system.ruby.network.sankey.vcvn16.vcvn11            0                       (Unspecified)
system.ruby.network.sankey.vcvn16.vcvn12            0                       (Unspecified)
system.ruby.network.sankey.vcvn16.vcvn13            0                       (Unspecified)
system.ruby.network.sankey.vcvn16.vcvn14            0                       (Unspecified)
system.ruby.network.sankey.vcvn16.vcvn15            0                       (Unspecified)
system.ruby.network.sankey.vcvn16.vcvn16      3898957                       (Unspecified)
system.ruby.network.sankey.vcvn16.vcvn17            0                       (Unspecified)
system.ruby.network.sankey.vcvn16.vcvn2             0                       (Unspecified)
system.ruby.network.sankey.vcvn16.vcvn3             0                       (Unspecified)
system.ruby.network.sankey.vcvn16.vcvn4             0                       (Unspecified)
system.ruby.network.sankey.vcvn16.vcvn5             0                       (Unspecified)
system.ruby.network.sankey.vcvn16.vcvn6             0                       (Unspecified)
system.ruby.network.sankey.vcvn16.vcvn7             0                       (Unspecified)
system.ruby.network.sankey.vcvn16.vcvn8             0                       (Unspecified)
system.ruby.network.sankey.vcvn16.vcvn9             0                       (Unspecified)
system.ruby.network.sankey.vcvn17.vcvn0             0                       (Unspecified)
system.ruby.network.sankey.vcvn17.vcvn1             0                       (Unspecified)
system.ruby.network.sankey.vcvn17.vcvn10            0                       (Unspecified)
system.ruby.network.sankey.vcvn17.vcvn11            0                       (Unspecified)
system.ruby.network.sankey.vcvn17.vcvn12            0                       (Unspecified)
system.ruby.network.sankey.vcvn17.vcvn13            0                       (Unspecified)
system.ruby.network.sankey.vcvn17.vcvn14            0                       (Unspecified)
system.ruby.network.sankey.vcvn17.vcvn15            0                       (Unspecified)
system.ruby.network.sankey.vcvn17.vcvn16            0                       (Unspecified)
system.ruby.network.sankey.vcvn17.vcvn17      5322132                       (Unspecified)
system.ruby.network.sankey.vcvn17.vcvn2             0                       (Unspecified)
system.ruby.network.sankey.vcvn17.vcvn3             0                       (Unspecified)
system.ruby.network.sankey.vcvn17.vcvn4             0                       (Unspecified)
system.ruby.network.sankey.vcvn17.vcvn5             0                       (Unspecified)
system.ruby.network.sankey.vcvn17.vcvn6             0                       (Unspecified)
system.ruby.network.sankey.vcvn17.vcvn7             0                       (Unspecified)
system.ruby.network.sankey.vcvn17.vcvn8             0                       (Unspecified)
system.ruby.network.sankey.vcvn17.vcvn9             0                       (Unspecified)
system.ruby.network.sankey.vcvn2.vcvn0        2197257                       (Unspecified)
system.ruby.network.sankey.vcvn2.vcvn1          92926                       (Unspecified)
system.ruby.network.sankey.vcvn2.vcvn10             0                       (Unspecified)
system.ruby.network.sankey.vcvn2.vcvn11             0                       (Unspecified)
system.ruby.network.sankey.vcvn2.vcvn12             0                       (Unspecified)
system.ruby.network.sankey.vcvn2.vcvn13             0                       (Unspecified)
system.ruby.network.sankey.vcvn2.vcvn14             0                       (Unspecified)
system.ruby.network.sankey.vcvn2.vcvn15             0                       (Unspecified)
system.ruby.network.sankey.vcvn2.vcvn16             0                       (Unspecified)
system.ruby.network.sankey.vcvn2.vcvn17             0                       (Unspecified)
system.ruby.network.sankey.vcvn2.vcvn2           1910                       (Unspecified)
system.ruby.network.sankey.vcvn2.vcvn3             19                       (Unspecified)
system.ruby.network.sankey.vcvn2.vcvn4            480                       (Unspecified)
system.ruby.network.sankey.vcvn2.vcvn5           4384                       (Unspecified)
system.ruby.network.sankey.vcvn2.vcvn6              0                       (Unspecified)
system.ruby.network.sankey.vcvn2.vcvn7              0                       (Unspecified)
system.ruby.network.sankey.vcvn2.vcvn8              0                       (Unspecified)
system.ruby.network.sankey.vcvn2.vcvn9              0                       (Unspecified)
system.ruby.network.sankey.vcvn3.vcvn0        2197293                       (Unspecified)
system.ruby.network.sankey.vcvn3.vcvn1          92757                       (Unspecified)
system.ruby.network.sankey.vcvn3.vcvn10             0                       (Unspecified)
system.ruby.network.sankey.vcvn3.vcvn11             0                       (Unspecified)
system.ruby.network.sankey.vcvn3.vcvn12             0                       (Unspecified)
system.ruby.network.sankey.vcvn3.vcvn13             0                       (Unspecified)
system.ruby.network.sankey.vcvn3.vcvn14             0                       (Unspecified)
system.ruby.network.sankey.vcvn3.vcvn15             0                       (Unspecified)
system.ruby.network.sankey.vcvn3.vcvn16             0                       (Unspecified)
system.ruby.network.sankey.vcvn3.vcvn17             0                       (Unspecified)
system.ruby.network.sankey.vcvn3.vcvn2           1916                       (Unspecified)
system.ruby.network.sankey.vcvn3.vcvn3             19                       (Unspecified)
system.ruby.network.sankey.vcvn3.vcvn4            531                       (Unspecified)
system.ruby.network.sankey.vcvn3.vcvn5           4446                       (Unspecified)
system.ruby.network.sankey.vcvn3.vcvn6              0                       (Unspecified)
system.ruby.network.sankey.vcvn3.vcvn7              0                       (Unspecified)
system.ruby.network.sankey.vcvn3.vcvn8              0                       (Unspecified)
system.ruby.network.sankey.vcvn3.vcvn9              0                       (Unspecified)
system.ruby.network.sankey.vcvn4.vcvn0              0                       (Unspecified)
system.ruby.network.sankey.vcvn4.vcvn1              0                       (Unspecified)
system.ruby.network.sankey.vcvn4.vcvn10             0                       (Unspecified)
system.ruby.network.sankey.vcvn4.vcvn11             0                       (Unspecified)
system.ruby.network.sankey.vcvn4.vcvn12             0                       (Unspecified)
system.ruby.network.sankey.vcvn4.vcvn13             0                       (Unspecified)
system.ruby.network.sankey.vcvn4.vcvn14             0                       (Unspecified)
system.ruby.network.sankey.vcvn4.vcvn15             0                       (Unspecified)
system.ruby.network.sankey.vcvn4.vcvn16             0                       (Unspecified)
system.ruby.network.sankey.vcvn4.vcvn17             0                       (Unspecified)
system.ruby.network.sankey.vcvn4.vcvn2              0                       (Unspecified)
system.ruby.network.sankey.vcvn4.vcvn3              0                       (Unspecified)
system.ruby.network.sankey.vcvn4.vcvn4         566495                       (Unspecified)
system.ruby.network.sankey.vcvn4.vcvn5              0                       (Unspecified)
system.ruby.network.sankey.vcvn4.vcvn6              0                       (Unspecified)
system.ruby.network.sankey.vcvn4.vcvn7              0                       (Unspecified)
system.ruby.network.sankey.vcvn4.vcvn8              0                       (Unspecified)
system.ruby.network.sankey.vcvn4.vcvn9              0                       (Unspecified)
system.ruby.network.sankey.vcvn5.vcvn0              0                       (Unspecified)
system.ruby.network.sankey.vcvn5.vcvn1              0                       (Unspecified)
system.ruby.network.sankey.vcvn5.vcvn10             0                       (Unspecified)
system.ruby.network.sankey.vcvn5.vcvn11             0                       (Unspecified)
system.ruby.network.sankey.vcvn5.vcvn12             0                       (Unspecified)
system.ruby.network.sankey.vcvn5.vcvn13             0                       (Unspecified)
system.ruby.network.sankey.vcvn5.vcvn14             0                       (Unspecified)
system.ruby.network.sankey.vcvn5.vcvn15             0                       (Unspecified)
system.ruby.network.sankey.vcvn5.vcvn16             0                       (Unspecified)
system.ruby.network.sankey.vcvn5.vcvn17             0                       (Unspecified)
system.ruby.network.sankey.vcvn5.vcvn2              0                       (Unspecified)
system.ruby.network.sankey.vcvn5.vcvn3              0                       (Unspecified)
system.ruby.network.sankey.vcvn5.vcvn4              0                       (Unspecified)
system.ruby.network.sankey.vcvn5.vcvn5        2255795                       (Unspecified)
system.ruby.network.sankey.vcvn5.vcvn6              0                       (Unspecified)
system.ruby.network.sankey.vcvn5.vcvn7              0                       (Unspecified)
system.ruby.network.sankey.vcvn5.vcvn8              0                       (Unspecified)
system.ruby.network.sankey.vcvn5.vcvn9              0                       (Unspecified)
system.ruby.network.sankey.vcvn6.vcvn0              0                       (Unspecified)
system.ruby.network.sankey.vcvn6.vcvn1              0                       (Unspecified)
system.ruby.network.sankey.vcvn6.vcvn10             0                       (Unspecified)
system.ruby.network.sankey.vcvn6.vcvn11             0                       (Unspecified)
system.ruby.network.sankey.vcvn6.vcvn12             0                       (Unspecified)
system.ruby.network.sankey.vcvn6.vcvn13             0                       (Unspecified)
system.ruby.network.sankey.vcvn6.vcvn14             0                       (Unspecified)
system.ruby.network.sankey.vcvn6.vcvn15             0                       (Unspecified)
system.ruby.network.sankey.vcvn6.vcvn16             0                       (Unspecified)
system.ruby.network.sankey.vcvn6.vcvn17             0                       (Unspecified)
system.ruby.network.sankey.vcvn6.vcvn2              0                       (Unspecified)
system.ruby.network.sankey.vcvn6.vcvn3              0                       (Unspecified)
system.ruby.network.sankey.vcvn6.vcvn4              0                       (Unspecified)
system.ruby.network.sankey.vcvn6.vcvn5              0                       (Unspecified)
system.ruby.network.sankey.vcvn6.vcvn6              0                       (Unspecified)
system.ruby.network.sankey.vcvn6.vcvn7              0                       (Unspecified)
system.ruby.network.sankey.vcvn6.vcvn8              0                       (Unspecified)
system.ruby.network.sankey.vcvn6.vcvn9              0                       (Unspecified)
system.ruby.network.sankey.vcvn7.vcvn0              0                       (Unspecified)
system.ruby.network.sankey.vcvn7.vcvn1              0                       (Unspecified)
system.ruby.network.sankey.vcvn7.vcvn10             0                       (Unspecified)
system.ruby.network.sankey.vcvn7.vcvn11             0                       (Unspecified)
system.ruby.network.sankey.vcvn7.vcvn12             0                       (Unspecified)
system.ruby.network.sankey.vcvn7.vcvn13             0                       (Unspecified)
system.ruby.network.sankey.vcvn7.vcvn14             0                       (Unspecified)
system.ruby.network.sankey.vcvn7.vcvn15             0                       (Unspecified)
system.ruby.network.sankey.vcvn7.vcvn16             0                       (Unspecified)
system.ruby.network.sankey.vcvn7.vcvn17             0                       (Unspecified)
system.ruby.network.sankey.vcvn7.vcvn2              0                       (Unspecified)
system.ruby.network.sankey.vcvn7.vcvn3              0                       (Unspecified)
system.ruby.network.sankey.vcvn7.vcvn4              0                       (Unspecified)
system.ruby.network.sankey.vcvn7.vcvn5              0                       (Unspecified)
system.ruby.network.sankey.vcvn7.vcvn6              0                       (Unspecified)
system.ruby.network.sankey.vcvn7.vcvn7              0                       (Unspecified)
system.ruby.network.sankey.vcvn7.vcvn8              0                       (Unspecified)
system.ruby.network.sankey.vcvn7.vcvn9              0                       (Unspecified)
system.ruby.network.sankey.vcvn8.vcvn0              0                       (Unspecified)
system.ruby.network.sankey.vcvn8.vcvn1              0                       (Unspecified)
system.ruby.network.sankey.vcvn8.vcvn10             0                       (Unspecified)
system.ruby.network.sankey.vcvn8.vcvn11             0                       (Unspecified)
system.ruby.network.sankey.vcvn8.vcvn12             0                       (Unspecified)
system.ruby.network.sankey.vcvn8.vcvn13             0                       (Unspecified)
system.ruby.network.sankey.vcvn8.vcvn14             0                       (Unspecified)
system.ruby.network.sankey.vcvn8.vcvn15             0                       (Unspecified)
system.ruby.network.sankey.vcvn8.vcvn16             0                       (Unspecified)
system.ruby.network.sankey.vcvn8.vcvn17             0                       (Unspecified)
system.ruby.network.sankey.vcvn8.vcvn2              0                       (Unspecified)
system.ruby.network.sankey.vcvn8.vcvn3              0                       (Unspecified)
system.ruby.network.sankey.vcvn8.vcvn4              0                       (Unspecified)
system.ruby.network.sankey.vcvn8.vcvn5              0                       (Unspecified)
system.ruby.network.sankey.vcvn8.vcvn6              0                       (Unspecified)
system.ruby.network.sankey.vcvn8.vcvn7              0                       (Unspecified)
system.ruby.network.sankey.vcvn8.vcvn8              0                       (Unspecified)
system.ruby.network.sankey.vcvn8.vcvn9              0                       (Unspecified)
system.ruby.network.sankey.vcvn9.vcvn0              0                       (Unspecified)
system.ruby.network.sankey.vcvn9.vcvn1              0                       (Unspecified)
system.ruby.network.sankey.vcvn9.vcvn10             0                       (Unspecified)
system.ruby.network.sankey.vcvn9.vcvn11             0                       (Unspecified)
system.ruby.network.sankey.vcvn9.vcvn12             0                       (Unspecified)
system.ruby.network.sankey.vcvn9.vcvn13             0                       (Unspecified)
system.ruby.network.sankey.vcvn9.vcvn14             0                       (Unspecified)
system.ruby.network.sankey.vcvn9.vcvn15             0                       (Unspecified)
system.ruby.network.sankey.vcvn9.vcvn16             0                       (Unspecified)
system.ruby.network.sankey.vcvn9.vcvn17             0                       (Unspecified)
system.ruby.network.sankey.vcvn9.vcvn2              0                       (Unspecified)
system.ruby.network.sankey.vcvn9.vcvn3              0                       (Unspecified)
system.ruby.network.sankey.vcvn9.vcvn4              0                       (Unspecified)
system.ruby.network.sankey.vcvn9.vcvn5              0                       (Unspecified)
system.ruby.network.sankey.vcvn9.vcvn6              0                       (Unspecified)
system.ruby.network.sankey.vcvn9.vcvn7              0                       (Unspecified)
system.ruby.network.sankey.vcvn9.vcvn8              0                       (Unspecified)
system.ruby.network.sankey.vcvn9.vcvn9              0                       (Unspecified)

---------- End Simulation Statistics   ----------
