gem5 Simulator System.  https://www.gem5.org
gem5 is copyrighted software; use the --copyright option for details.

gem5 version 22.1.0.0
gem5 compiled Apr 26 2024 15:22:46
gem5 started Apr 27 2024 07:10:53
gem5 executing on mnemosyne08.ecn.purdue.edu, pid 30039
command line: ./build/Garnet_standalone/gem5.fast -d ./synth_outputs/simple/2b/mixed/uniform/2evns_12vcs_64cpus_4xdirs_4.0GHz/mem/ft_64r/0_17/ configs/netsmith/netsmith_synth.py --topology EscapeVirtualNetworks --noi_routers 64 --sim-cycles 2147483647 --injectionrate 0.17 --noc_clk 4.0GHz --sys-clock 4.0GHz --ruby-clock 4.0GHz --noi_clk 3.0GHz --router_map_file ./topologies_and_routing/topo_maps/64r/prev/ft_64r.map --flat_vn_map_file ./topologies_and_routing/vn_maps/ft_64r_nndbt_hops_2vns.vn --flat_nr_map_file ./topologies_and_routing/nr_lists/ft_64r_nndbt.nrl --ruby --mem_or_coh mem --mem-size 4096000 --num-dirs 64 --num-cpus 64 --network garnet --mem-type SimpleMemory --routing-algorithm 2 --use_escape_vns --synth_traffic --vcs-per-vnet 12 --evn_deadlock_partition 10 --evn_n_deadlock_free 1 --evn_min_n_deadlock_free 2

info: Standard input is not a terminal, disabling listeners.
cpus(64)=[<m5.objects.GarnetSyntheticTraffic.GarnetSyntheticTraffic object at 0x7fcdb0d4e908>, <m5.objects.GarnetSyntheticTraffic.GarnetSyntheticTraffic object at 0x7fcdb0d76b70>, <m5.objects.GarnetSyntheticTraffic.GarnetSyntheticTraffic object at 0x7fcdb0d76518>, <m5.objects.GarnetSyntheticTraffic.GarnetSyntheticTraffic object at 0x7fcdb0d76048>, <m5.objects.GarnetSyntheticTraffic.GarnetSyntheticTraffic object at 0x7fcdb0d6dbe0>, <m5.objects.GarnetSyntheticTraffic.GarnetSyntheticTraffic object at 0x7fcdb0d6d6a0>, <m5.objects.GarnetSyntheticTraffic.GarnetSyntheticTraffic object at 0x7fcdb0d6d2e8>, <m5.objects.GarnetSyntheticTraffic.GarnetSyntheticTraffic object at 0x7fcdb0d69dd8>, <m5.objects.GarnetSyntheticTraffic.GarnetSyntheticTraffic object at 0x7fcdb0d69978>, <m5.objects.GarnetSyntheticTraffic.GarnetSyntheticTraffic object at 0x7fcdb0d69438>, <m5.objects.GarnetSyntheticTraffic.GarnetSyntheticTraffic object at 0x7fcdb0d72f98>, <m5.objects.GarnetSyntheticTraffic.GarnetSyntheticTraffic object at 0x7fcdb0d72be0>, <m5.objects.GarnetSyntheticTraffic.GarnetSyntheticTraffic object at 0x7fcdb0d7e278>, <m5.objects.GarnetSyntheticTraffic.GarnetSyntheticTraffic object at 0x7fcdb0d7e550>, <m5.objects.GarnetSyntheticTraffic.GarnetSyntheticTraffic object at 0x7fcdb0d7e828>, <m5.objects.GarnetSyntheticTraffic.GarnetSyntheticTraffic object at 0x7fcdb0d7eb00>, <m5.objects.GarnetSyntheticTraffic.GarnetSyntheticTraffic object at 0x7fcdb0d7edd8>, <m5.objects.GarnetSyntheticTraffic.GarnetSyntheticTraffic object at 0x7fcdae55b0f0>, <m5.objects.GarnetSyntheticTraffic.GarnetSyntheticTraffic object at 0x7fcdae55b3c8>, <m5.objects.GarnetSyntheticTraffic.GarnetSyntheticTraffic object at 0x7fcdae55b630>, <m5.objects.GarnetSyntheticTraffic.GarnetSyntheticTraffic object at 0x7fcdae55b908>, <m5.objects.GarnetSyntheticTraffic.GarnetSyntheticTraffic object at 0x7fcdae55bbe0>, <m5.objects.GarnetSyntheticTraffic.GarnetSyntheticTraffic object at 0x7fcdae55beb8>, <m5.objects.GarnetSyntheticTraffic.GarnetSyntheticTraffic object at 0x7fcdae5621d0>, <m5.objects.GarnetSyntheticTraffic.GarnetSyntheticTraffic object at 0x7fcdae5624a8>, <m5.objects.GarnetSyntheticTraffic.GarnetSyntheticTraffic object at 0x7fcdae562780>, <m5.objects.GarnetSyntheticTraffic.GarnetSyntheticTraffic object at 0x7fcdae562a58>, <m5.objects.GarnetSyntheticTraffic.GarnetSyntheticTraffic object at 0x7fcdae562d30>, <m5.objects.GarnetSyntheticTraffic.GarnetSyntheticTraffic object at 0x7fcdae56b048>, <m5.objects.GarnetSyntheticTraffic.GarnetSyntheticTraffic object at 0x7fcdae56b320>, <m5.objects.GarnetSyntheticTraffic.GarnetSyntheticTraffic object at 0x7fcdae56b5f8>, <m5.objects.GarnetSyntheticTraffic.GarnetSyntheticTraffic object at 0x7fcdae56b8d0>, <m5.objects.GarnetSyntheticTraffic.GarnetSyntheticTraffic object at 0x7fcdae56bba8>, <m5.objects.GarnetSyntheticTraffic.GarnetSyntheticTraffic object at 0x7fcdae56be80>, <m5.objects.GarnetSyntheticTraffic.GarnetSyntheticTraffic object at 0x7fcdae572198>, <m5.objects.GarnetSyntheticTraffic.GarnetSyntheticTraffic object at 0x7fcdae572470>, <m5.objects.GarnetSyntheticTraffic.GarnetSyntheticTraffic object at 0x7fcdae572748>, <m5.objects.GarnetSyntheticTraffic.GarnetSyntheticTraffic object at 0x7fcdae572a20>, <m5.objects.GarnetSyntheticTraffic.GarnetSyntheticTraffic object at 0x7fcdae572cf8>, <m5.objects.GarnetSyntheticTraffic.GarnetSyntheticTraffic object at 0x7fcdae572fd0>, <m5.objects.GarnetSyntheticTraffic.GarnetSyntheticTraffic object at 0x7fcdae57b2e8>, <m5.objects.GarnetSyntheticTraffic.GarnetSyntheticTraffic object at 0x7fcdae57b5c0>, <m5.objects.GarnetSyntheticTraffic.GarnetSyntheticTraffic object at 0x7fcdae57b898>, <m5.objects.GarnetSyntheticTraffic.GarnetSyntheticTraffic object at 0x7fcdae57bb70>, <m5.objects.GarnetSyntheticTraffic.GarnetSyntheticTraffic object at 0x7fcdae57be48>, <m5.objects.GarnetSyntheticTraffic.GarnetSyntheticTraffic object at 0x7fcdae584160>, <m5.objects.GarnetSyntheticTraffic.GarnetSyntheticTraffic object at 0x7fcdae584438>, <m5.objects.GarnetSyntheticTraffic.GarnetSyntheticTraffic object at 0x7fcdae584710>, <m5.objects.GarnetSyntheticTraffic.GarnetSyntheticTraffic object at 0x7fcdae5849e8>, <m5.objects.GarnetSyntheticTraffic.GarnetSyntheticTraffic object at 0x7fcdae584cc0>, <m5.objects.GarnetSyntheticTraffic.GarnetSyntheticTraffic object at 0x7fcdae584f98>, <m5.objects.GarnetSyntheticTraffic.GarnetSyntheticTraffic object at 0x7fcdae58a2b0>, <m5.objects.GarnetSyntheticTraffic.GarnetSyntheticTraffic object at 0x7fcdae58a588>, <m5.objects.GarnetSyntheticTraffic.GarnetSyntheticTraffic object at 0x7fcdae58a860>, <m5.objects.GarnetSyntheticTraffic.GarnetSyntheticTraffic object at 0x7fcdae58ab38>, <m5.objects.GarnetSyntheticTraffic.GarnetSyntheticTraffic object at 0x7fcdae58ae10>, <m5.objects.GarnetSyntheticTraffic.GarnetSyntheticTraffic object at 0x7fcdae593128>, <m5.objects.GarnetSyntheticTraffic.GarnetSyntheticTraffic object at 0x7fcdae593400>, <m5.objects.GarnetSyntheticTraffic.GarnetSyntheticTraffic object at 0x7fcdae5936d8>, <m5.objects.GarnetSyntheticTraffic.GarnetSyntheticTraffic object at 0x7fcdae5939b0>, <m5.objects.GarnetSyntheticTraffic.GarnetSyntheticTraffic object at 0x7fcdae593c88>, <m5.objects.GarnetSyntheticTraffic.GarnetSyntheticTraffic object at 0x7fcdae593f60>, <m5.objects.GarnetSyntheticTraffic.GarnetSyntheticTraffic object at 0x7fcdae51c278>, <m5.objects.GarnetSyntheticTraffic.GarnetSyntheticTraffic object at 0x7fcdae51c550>])
ingesting ./topologies_and_routing/nr_lists/ft_64r_nndbt.nrl
ingesting ./topologies_and_routing/vn_maps/ft_64r_nndbt_hops_2vns.vn
Adding external link: l1 cache node 0 <-> noi router 0 
Adding external link: l1 cache node 1 <-> noi router 1 
Adding external link: l1 cache node 2 <-> noi router 2 
Adding external link: l1 cache node 3 <-> noi router 3 
Adding external link: l1 cache node 4 <-> noi router 4 
Adding external link: l1 cache node 5 <-> noi router 5 
Adding external link: l1 cache node 6 <-> noi router 6 
Adding external link: l1 cache node 7 <-> noi router 7 
Adding external link: l1 cache node 8 <-> noi router 8 
Adding external link: l1 cache node 9 <-> noi router 9 
Adding external link: l1 cache node 10 <-> noi router 10 
Adding external link: l1 cache node 11 <-> noi router 11 
Adding external link: l1 cache node 12 <-> noi router 12 
Adding external link: l1 cache node 13 <-> noi router 13 
Adding external link: l1 cache node 14 <-> noi router 14 
Adding external link: l1 cache node 15 <-> noi router 15 
Adding external link: l1 cache node 16 <-> noi router 16 
Adding external link: l1 cache node 17 <-> noi router 17 
Adding external link: l1 cache node 18 <-> noi router 18 
Adding external link: l1 cache node 19 <-> noi router 19 
Adding external link: l1 cache node 20 <-> noi router 20 
Adding external link: l1 cache node 21 <-> noi router 21 
Adding external link: l1 cache node 22 <-> noi router 22 
Adding external link: l1 cache node 23 <-> noi router 23 
Adding external link: l1 cache node 24 <-> noi router 24 
Adding external link: l1 cache node 25 <-> noi router 25 Global frequency set at 1000000000000 ticks per second

Adding external link: l1 cache node 26 <-> noi router 26 
Adding external link: l1 cache node 27 <-> noi router 27 
Adding external link: l1 cache node 28 <-> noi router 28 
Adding external link: l1 cache node 29 <-> noi router 29 
Adding external link: l1 cache node 30 <-> noi router 30 
Adding external link: l1 cache node 31 <-> noi router 31 
Adding external link: l1 cache node 32 <-> noi router 32 
Adding external link: l1 cache node 33 <-> noi router 33 
Adding external link: l1 cache node 34 <-> noi router 34 
Adding external link: l1 cache node 35 <-> noi router 35 
Adding external link: l1 cache node 36 <-> noi router 36 
Adding external link: l1 cache node 37 <-> noi router 37 
Adding external link: l1 cache node 38 <-> noi router 38 
Adding external link: l1 cache node 39 <-> noi router 39 
Adding external link: l1 cache node 40 <-> noi router 40 
Adding external link: l1 cache node 41 <-> noi router 41 
Adding external link: l1 cache node 42 <-> noi router 42 
Adding external link: l1 cache node 43 <-> noi router 43 
Adding external link: l1 cache node 44 <-> noi router 44 
Adding external link: l1 cache node 45 <-> noi router 45 
Adding external link: l1 cache node 46 <-> noi router 46 
Adding external link: l1 cache node 47 <-> noi router 47 
Adding external link: l1 cache node 48 <-> noi router 48 
Adding external link: l1 cache node 49 <-> noi router 49 
Adding external link: l1 cache node 50 <-> noi router 50 
Adding external link: l1 cache node 51 <-> noi router 51 
Adding external link: l1 cache node 52 <-> noi router 52 
Adding external link: l1 cache node 53 <-> noi router 53 
Adding external link: l1 cache node 54 <-> noi router 54 
Adding external link: l1 cache node 55 <-> noi router 55 
Adding external link: l1 cache node 56 <-> noi router 56 
Adding external link: l1 cache node 57 <-> noi router 57 
Adding external link: l1 cache node 58 <-> noi router 58 
Adding external link: l1 cache node 59 <-> noi router 59 
Adding external link: l1 cache node 60 <-> noi router 60 
Adding external link: l1 cache node 61 <-> noi router 61 
Adding external link: l1 cache node 62 <-> noi router 62 
Adding external link: l1 cache node 63 <-> noi router 63 
Adding external link (id 64): dir node 0 <-> noi router 0
Adding external link (id 65): dir node 1 <-> noi router 8
Adding external link (id 66): dir node 2 <-> noi router 16
Adding external link (id 67): dir node 3 <-> noi router 24
Adding external link (id 68): dir node 4 <-> noi router 32
Adding external link (id 69): dir node 5 <-> noi router 40
Adding external link (id 70): dir node 6 <-> noi router 48
Adding external link (id 71): dir node 7 <-> noi router 56
Adding external link (id 72): dir node 8 <-> noi router 7
Adding external link (id 73): dir node 9 <-> noi router 15
Adding external link (id 74): dir node 10 <-> noi router 23
Adding external link (id 75): dir node 11 <-> noi router 31
Adding external link (id 76): dir node 12 <-> noi router 39
Adding external link (id 77): dir node 13 <-> noi router 47
Adding external link (id 78): dir node 14 <-> noi router 55
Adding external link (id 79): dir node 15 <-> noi router 63
Adding external link (id 80): dir node 16 <-> noi router 0
Adding external link (id 81): dir node 17 <-> noi router 8
Adding external link (id 82): dir node 18 <-> noi router 16
Adding external link (id 83): dir node 19 <-> noi router 24
Adding external link (id 84): dir node 20 <-> noi router 32
Adding external link (id 85): dir node 21 <-> noi router 40
Adding external link (id 86): dir node 22 <-> noi router 48
Adding external link (id 87): dir node 23 <-> noi router 56
Adding external link (id 88): dir node 24 <-> noi router 7
Adding external link (id 89): dir node 25 <-> noi router 15
Adding external link (id 90): dir node 26 <-> noi router 23
Adding external link (id 91): dir node 27 <-> noi router 31
Adding external link (id 92): dir node 28 <-> noi router 39
Adding external link (id 93): dir node 29 <-> noi router 47
Adding external link (id 94): dir node 30 <-> noi router 55
Adding external link (id 95): dir node 31 <-> noi router 63
Adding external link (id 96): dir node 32 <-> noi router 0
Adding external link (id 97): dir node 33 <-> noi router 8
Adding external link (id 98): dir node 34 <-> noi router 16
Adding external link (id 99): dir node 35 <-> noi router 24
Adding external link (id 100): dir node 36 <-> noi router 32
Adding external link (id 101): dir node 37 <-> noi router 40
Adding external link (id 102): dir node 38 <-> noi router 48
Adding external link (id 103): dir node 39 <-> noi router 56
Adding external link (id 104): dir node 40 <-> noi router 7
Adding external link (id 105): dir node 41 <-> noi router 15
Adding external link (id 106): dir node 42 <-> noi router 23
Adding external link (id 107): dir node 43 <-> noi router 31
Adding external link (id 108): dir node 44 <-> noi router 39
Adding external link (id 109): dir node 45 <-> noi router 47
Adding external link (id 110): dir node 46 <-> noi router 55
Adding external link (id 111): dir node 47 <-> noi router 63
Adding external link (id 112): dir node 48 <-> noi router 0
Adding external link (id 113): dir node 49 <-> noi router 8
Adding external link (id 114): dir node 50 <-> noi router 16
Adding external link (id 115): dir node 51 <-> noi router 24
Adding external link (id 116): dir node 52 <-> noi router 32
Adding external link (id 117): dir node 53 <-> noi router 40
Adding external link (id 118): dir node 54 <-> noi router 48
Adding external link (id 119): dir node 55 <-> noi router 56
Adding external link (id 120): dir node 56 <-> noi router 7
Adding external link (id 121): dir node 57 <-> noi router 15
Adding external link (id 122): dir node 58 <-> noi router 23
Adding external link (id 123): dir node 59 <-> noi router 31
Adding external link (id 124): dir node 60 <-> noi router 39
Adding external link (id 125): dir node 61 <-> noi router 47
Adding external link (id 126): dir node 62 <-> noi router 55
Adding external link (id 127): dir node 63 <-> noi router 63
ingesting ./topologies_and_routing/topo_maps/64r/prev/ft_64r.map
per_cpu=64000
autotop_synth:: About to run simulation
Possible network deadlock in vnet: 2, evn_class 1, at time: 14447500 in NI 12 and router 12 
post_dlock=1 and dlock thresh=100000 in NI 12
Possible network deadlock in vnet: 2, evn_class 1, at time: 15557750 in NI 10 and router 10 
post_dlock=1 and dlock thresh=100000 in NI 10
Possible network deadlock in vnet: 2, evn_class 1, at time: 21551000 in NI 1 and router 1 
post_dlock=1 and dlock thresh=100000 in NI 1
Possible network deadlock in vnet: 2, evn_class 1, at time: 26425750 in NI 0 and router 0 
post_dlock=1 and dlock thresh=100000 in NI 0
Possible network deadlock in vnet: 2, evn_class 1, at time: 26527750 in NI 2 and router 2 
post_dlock=1 and dlock thresh=100000 in NI 2
Possible network deadlock in vnet: 2, evn_class 1, at time: 32458750 in NI 3 and router 3 
post_dlock=1 and dlock thresh=100000 in NI 3
Possible network deadlock in vnet: 2, evn_class 1, at time: 32459250 in NI 5 and router 5 
post_dlock=1 and dlock thresh=100000 in NI 5
Possible network deadlock in vnet: 2, evn_class 1, at time: 34051000 in NI 1 and router 1 
post_dlock=1 and dlock thresh=200000 in NI 1
Possible network deadlock in vnet: 2, evn_class 1, at time: 35302000 in NI 4 and router 4 
post_dlock=1 and dlock thresh=100000 in NI 4
Possible network deadlock in vnet: 2, evn_class 1, at time: 38925750 in NI 0 and router 0 
post_dlock=1 and dlock thresh=200000 in NI 0
Possible network deadlock in vnet: 2, evn_class 1, at time: 39027750 in NI 2 and router 2 
post_dlock=1 and dlock thresh=200000 in NI 2
Possible network deadlock in vnet: 2, evn_class 1, at time: 56653500 in NI 9 and router 9 
post_dlock=1 and dlock thresh=100000 in NI 9
Possible network deadlock in vnet: 2, evn_class 1, at time: 59051000 in NI 1 and router 1 
post_dlock=1 and dlock thresh=400000 in NI 1
Possible network deadlock in vnet: 2, evn_class 1, at time: 63925750 in NI 0 and router 0 
post_dlock=1 and dlock thresh=400000 in NI 0
Possible network deadlock in vnet: 2, evn_class 1, at time: 114695000 in NI 3 and router 3 
post_dlock=1 and dlock thresh=200000 in NI 3
Possible network deadlock in vnet: 2, evn_class 1, at time: 118536000 in NI 49 and router 49 
post_dlock=1 and dlock thresh=100000 in NI 49
Possible network deadlock in vnet: 2, evn_class 1, at time: 123895750 in NI 8 and router 8 
post_dlock=1 and dlock thresh=100000 in NI 8
Possible network deadlock in vnet: 2, evn_class 1, at time: 168049500 in NI 10 and router 10 
post_dlock=1 and dlock thresh=200000 in NI 10
Possible network deadlock in vnet: 2, evn_class 1, at time: 197060250 in NI 17 and router 17 
post_dlock=1 and dlock thresh=100000 in NI 17
Possible network deadlock in vnet: 2, evn_class 1, at time: 215592250 in NI 40 and router 40 
post_dlock=1 and dlock thresh=100000 in NI 40
Possible network deadlock in vnet: 2, evn_class 1, at time: 217976500 in NI 24 and router 24 
post_dlock=1 and dlock thresh=100000 in NI 24
Possible network deadlock in vnet: 2, evn_class 1, at time: 462008750 in NI 16 and router 16 
post_dlock=1 and dlock thresh=100000 in NI 16
Possible network deadlock in vnet: 2, evn_class 1, at time: 592164250 in NI 2 and router 2 
post_dlock=1 and dlock thresh=400000 in NI 2
Possible network deadlock in vnet: 2, evn_class 1, at time: 607503750 in NI 4 and router 4 
post_dlock=1 and dlock thresh=200000 in NI 4
Possible network deadlock in vnet: 2, evn_class 1, at time: 760984000 in NI 26 and router 26 
post_dlock=1 and dlock thresh=100000 in NI 26
Possible network deadlock in vnet: 2, evn_class 1, at time: 872837000 in NI 40 and router 40 
post_dlock=1 and dlock thresh=200000 in NI 40
Possible network deadlock in vnet: 2, evn_class 1, at time: 882715500 in NI 8 and router 8 
post_dlock=1 and dlock thresh=200000 in NI 8
Possible network deadlock in vnet: 2, evn_class 1, at time: 1061820250 in NI 24 and router 24 
post_dlock=1 and dlock thresh=200000 in NI 24
Possible network deadlock in vnet: 2, evn_class 1, at time: 1486935250 in NI 7 and router 7 
post_dlock=1 and dlock thresh=100000 in NI 7
Possible network deadlock in vnet: 2, evn_class 1, at time: 1703320000 in NI 32 and router 32 
post_dlock=1 and dlock thresh=100000 in NI 32
Possible network deadlock in vnet: 2, evn_class 1, at time: 1709061000 in NI 33 and router 33 
post_dlock=1 and dlock thresh=100000 in NI 33
Possible network deadlock in vnet: 2, evn_class 1, at time: 1878583750 in NI 11 and router 11 
post_dlock=1 and dlock thresh=100000 in NI 11
Exiting @ tick 2147483750 because Network Tester completed simCycles
build/Garnet_standalone/base/statistics.hh:280: warn: One of the stats is a legacy stat. Legacy stat is a stat that does not belong to any statistics::Group. Legacy stat is deprecated.
build/Garnet_standalone/base/statistics.hh:280: warn: One of the stats is a legacy stat. Legacy stat is a stat that does not belong to any statistics::Group. Legacy stat is deprecated.
build/Garnet_standalone/base/statistics.hh:280: warn: One of the stats is a legacy stat. Legacy stat is a stat that does not belong to any statistics::Group. Legacy stat is deprecated.
build/Garnet_standalone/base/statistics.hh:280: warn: One of the stats is a legacy stat. Legacy stat is a stat that does not belong to any statistics::Group. Legacy stat is deprecated.
build/Garnet_standalone/mem/ruby/network/garnet/GarnetNetwork.cc:128: info: Garnet version 3.0
warn: No dot file generated. Please install pydot to generate the dot file and pdf.
build/Garnet_standalone/sim/simulate.cc:192: info: Entering event queue @ 0.  Starting simulation...
build/Garnet_standalone/mem/ruby/system/Sequencer.cc:615: warn: Replacement policy updates recently became the responsibility of SLICC state machines. Make sure to setMRU() near callbacks in .sm files!
