
---------- Begin Simulation Statistics ----------
simSeconds                                   0.002147                       # Number of seconds simulated (Second)
simTicks                                   2147483750                       # Number of ticks simulated (Tick)
finalTick                                  2147483750                       # Number of ticks from beginning of simulation (restored from checkpoints and never reset) (Tick)
simFreq                                  1000000000000                       # The number of ticks per simulated second ((Tick/Second))
hostSeconds                                   1552.54                       # Real time elapsed on the host (Second)
hostTickRate                                  1383211                       # The number of ticks simulated per host second (ticks/s) ((Tick/Second))
hostMemory                                     791584                       # Number of bytes of host memory used (Byte)
system.clk_domain.clock                           250                       # Clock period in ticks (Tick)
system.cpu0.power_state.pwrStateResidencyTicks::UNDEFINED   2147483750                       # Cumulative time (in ticks) in various power states (Tick)
system.cpu1.power_state.pwrStateResidencyTicks::UNDEFINED   2147483750                       # Cumulative time (in ticks) in various power states (Tick)
system.cpu10.power_state.pwrStateResidencyTicks::UNDEFINED   2147483750                       # Cumulative time (in ticks) in various power states (Tick)
system.cpu11.power_state.pwrStateResidencyTicks::UNDEFINED   2147483750                       # Cumulative time (in ticks) in various power states (Tick)
system.cpu12.power_state.pwrStateResidencyTicks::UNDEFINED   2147483750                       # Cumulative time (in ticks) in various power states (Tick)
system.cpu13.power_state.pwrStateResidencyTicks::UNDEFINED   2147483750                       # Cumulative time (in ticks) in various power states (Tick)
system.cpu14.power_state.pwrStateResidencyTicks::UNDEFINED   2147483750                       # Cumulative time (in ticks) in various power states (Tick)
system.cpu15.power_state.pwrStateResidencyTicks::UNDEFINED   2147483750                       # Cumulative time (in ticks) in various power states (Tick)
system.cpu16.power_state.pwrStateResidencyTicks::UNDEFINED   2147483750                       # Cumulative time (in ticks) in various power states (Tick)
system.cpu17.power_state.pwrStateResidencyTicks::UNDEFINED   2147483750                       # Cumulative time (in ticks) in various power states (Tick)
system.cpu18.power_state.pwrStateResidencyTicks::UNDEFINED   2147483750                       # Cumulative time (in ticks) in various power states (Tick)
system.cpu19.power_state.pwrStateResidencyTicks::UNDEFINED   2147483750                       # Cumulative time (in ticks) in various power states (Tick)
system.cpu2.power_state.pwrStateResidencyTicks::UNDEFINED   2147483750                       # Cumulative time (in ticks) in various power states (Tick)
system.cpu20.power_state.pwrStateResidencyTicks::UNDEFINED   2147483750                       # Cumulative time (in ticks) in various power states (Tick)
system.cpu21.power_state.pwrStateResidencyTicks::UNDEFINED   2147483750                       # Cumulative time (in ticks) in various power states (Tick)
system.cpu22.power_state.pwrStateResidencyTicks::UNDEFINED   2147483750                       # Cumulative time (in ticks) in various power states (Tick)
system.cpu23.power_state.pwrStateResidencyTicks::UNDEFINED   2147483750                       # Cumulative time (in ticks) in various power states (Tick)
system.cpu24.power_state.pwrStateResidencyTicks::UNDEFINED   2147483750                       # Cumulative time (in ticks) in various power states (Tick)
system.cpu25.power_state.pwrStateResidencyTicks::UNDEFINED   2147483750                       # Cumulative time (in ticks) in various power states (Tick)
system.cpu26.power_state.pwrStateResidencyTicks::UNDEFINED   2147483750                       # Cumulative time (in ticks) in various power states (Tick)
system.cpu27.power_state.pwrStateResidencyTicks::UNDEFINED   2147483750                       # Cumulative time (in ticks) in various power states (Tick)
system.cpu28.power_state.pwrStateResidencyTicks::UNDEFINED   2147483750                       # Cumulative time (in ticks) in various power states (Tick)
system.cpu29.power_state.pwrStateResidencyTicks::UNDEFINED   2147483750                       # Cumulative time (in ticks) in various power states (Tick)
system.cpu3.power_state.pwrStateResidencyTicks::UNDEFINED   2147483750                       # Cumulative time (in ticks) in various power states (Tick)
system.cpu30.power_state.pwrStateResidencyTicks::UNDEFINED   2147483750                       # Cumulative time (in ticks) in various power states (Tick)
system.cpu31.power_state.pwrStateResidencyTicks::UNDEFINED   2147483750                       # Cumulative time (in ticks) in various power states (Tick)
system.cpu32.power_state.pwrStateResidencyTicks::UNDEFINED   2147483750                       # Cumulative time (in ticks) in various power states (Tick)
system.cpu33.power_state.pwrStateResidencyTicks::UNDEFINED   2147483750                       # Cumulative time (in ticks) in various power states (Tick)
system.cpu34.power_state.pwrStateResidencyTicks::UNDEFINED   2147483750                       # Cumulative time (in ticks) in various power states (Tick)
system.cpu35.power_state.pwrStateResidencyTicks::UNDEFINED   2147483750                       # Cumulative time (in ticks) in various power states (Tick)
system.cpu36.power_state.pwrStateResidencyTicks::UNDEFINED   2147483750                       # Cumulative time (in ticks) in various power states (Tick)
system.cpu37.power_state.pwrStateResidencyTicks::UNDEFINED   2147483750                       # Cumulative time (in ticks) in various power states (Tick)
system.cpu38.power_state.pwrStateResidencyTicks::UNDEFINED   2147483750                       # Cumulative time (in ticks) in various power states (Tick)
system.cpu39.power_state.pwrStateResidencyTicks::UNDEFINED   2147483750                       # Cumulative time (in ticks) in various power states (Tick)
system.cpu4.power_state.pwrStateResidencyTicks::UNDEFINED   2147483750                       # Cumulative time (in ticks) in various power states (Tick)
system.cpu5.power_state.pwrStateResidencyTicks::UNDEFINED   2147483750                       # Cumulative time (in ticks) in various power states (Tick)
system.cpu6.power_state.pwrStateResidencyTicks::UNDEFINED   2147483750                       # Cumulative time (in ticks) in various power states (Tick)
system.cpu7.power_state.pwrStateResidencyTicks::UNDEFINED   2147483750                       # Cumulative time (in ticks) in various power states (Tick)
system.cpu8.power_state.pwrStateResidencyTicks::UNDEFINED   2147483750                       # Cumulative time (in ticks) in various power states (Tick)
system.cpu9.power_state.pwrStateResidencyTicks::UNDEFINED   2147483750                       # Cumulative time (in ticks) in various power states (Tick)
system.mem_ctrls0.power_state.pwrStateResidencyTicks::UNDEFINED   2147483750                       # Cumulative time (in ticks) in various power states (Tick)
system.mem_ctrls1.power_state.pwrStateResidencyTicks::UNDEFINED   2147483750                       # Cumulative time (in ticks) in various power states (Tick)
system.mem_ctrls10.power_state.pwrStateResidencyTicks::UNDEFINED   2147483750                       # Cumulative time (in ticks) in various power states (Tick)
system.mem_ctrls100.power_state.pwrStateResidencyTicks::UNDEFINED   2147483750                       # Cumulative time (in ticks) in various power states (Tick)
system.mem_ctrls101.power_state.pwrStateResidencyTicks::UNDEFINED   2147483750                       # Cumulative time (in ticks) in various power states (Tick)
system.mem_ctrls102.power_state.pwrStateResidencyTicks::UNDEFINED   2147483750                       # Cumulative time (in ticks) in various power states (Tick)
system.mem_ctrls103.power_state.pwrStateResidencyTicks::UNDEFINED   2147483750                       # Cumulative time (in ticks) in various power states (Tick)
system.mem_ctrls104.power_state.pwrStateResidencyTicks::UNDEFINED   2147483750                       # Cumulative time (in ticks) in various power states (Tick)
system.mem_ctrls105.power_state.pwrStateResidencyTicks::UNDEFINED   2147483750                       # Cumulative time (in ticks) in various power states (Tick)
system.mem_ctrls106.power_state.pwrStateResidencyTicks::UNDEFINED   2147483750                       # Cumulative time (in ticks) in various power states (Tick)
system.mem_ctrls107.power_state.pwrStateResidencyTicks::UNDEFINED   2147483750                       # Cumulative time (in ticks) in various power states (Tick)
system.mem_ctrls108.power_state.pwrStateResidencyTicks::UNDEFINED   2147483750                       # Cumulative time (in ticks) in various power states (Tick)
system.mem_ctrls109.power_state.pwrStateResidencyTicks::UNDEFINED   2147483750                       # Cumulative time (in ticks) in various power states (Tick)
system.mem_ctrls11.power_state.pwrStateResidencyTicks::UNDEFINED   2147483750                       # Cumulative time (in ticks) in various power states (Tick)
system.mem_ctrls110.power_state.pwrStateResidencyTicks::UNDEFINED   2147483750                       # Cumulative time (in ticks) in various power states (Tick)
system.mem_ctrls111.power_state.pwrStateResidencyTicks::UNDEFINED   2147483750                       # Cumulative time (in ticks) in various power states (Tick)
system.mem_ctrls112.power_state.pwrStateResidencyTicks::UNDEFINED   2147483750                       # Cumulative time (in ticks) in various power states (Tick)
system.mem_ctrls113.power_state.pwrStateResidencyTicks::UNDEFINED   2147483750                       # Cumulative time (in ticks) in various power states (Tick)
system.mem_ctrls114.power_state.pwrStateResidencyTicks::UNDEFINED   2147483750                       # Cumulative time (in ticks) in various power states (Tick)
system.mem_ctrls115.power_state.pwrStateResidencyTicks::UNDEFINED   2147483750                       # Cumulative time (in ticks) in various power states (Tick)
system.mem_ctrls116.power_state.pwrStateResidencyTicks::UNDEFINED   2147483750                       # Cumulative time (in ticks) in various power states (Tick)
system.mem_ctrls117.power_state.pwrStateResidencyTicks::UNDEFINED   2147483750                       # Cumulative time (in ticks) in various power states (Tick)
system.mem_ctrls118.power_state.pwrStateResidencyTicks::UNDEFINED   2147483750                       # Cumulative time (in ticks) in various power states (Tick)
system.mem_ctrls119.power_state.pwrStateResidencyTicks::UNDEFINED   2147483750                       # Cumulative time (in ticks) in various power states (Tick)
system.mem_ctrls12.power_state.pwrStateResidencyTicks::UNDEFINED   2147483750                       # Cumulative time (in ticks) in various power states (Tick)
system.mem_ctrls120.power_state.pwrStateResidencyTicks::UNDEFINED   2147483750                       # Cumulative time (in ticks) in various power states (Tick)
system.mem_ctrls121.power_state.pwrStateResidencyTicks::UNDEFINED   2147483750                       # Cumulative time (in ticks) in various power states (Tick)
system.mem_ctrls122.power_state.pwrStateResidencyTicks::UNDEFINED   2147483750                       # Cumulative time (in ticks) in various power states (Tick)
system.mem_ctrls123.power_state.pwrStateResidencyTicks::UNDEFINED   2147483750                       # Cumulative time (in ticks) in various power states (Tick)
system.mem_ctrls124.power_state.pwrStateResidencyTicks::UNDEFINED   2147483750                       # Cumulative time (in ticks) in various power states (Tick)
system.mem_ctrls125.power_state.pwrStateResidencyTicks::UNDEFINED   2147483750                       # Cumulative time (in ticks) in various power states (Tick)
system.mem_ctrls126.power_state.pwrStateResidencyTicks::UNDEFINED   2147483750                       # Cumulative time (in ticks) in various power states (Tick)
system.mem_ctrls127.power_state.pwrStateResidencyTicks::UNDEFINED   2147483750                       # Cumulative time (in ticks) in various power states (Tick)
system.mem_ctrls128.power_state.pwrStateResidencyTicks::UNDEFINED   2147483750                       # Cumulative time (in ticks) in various power states (Tick)
system.mem_ctrls129.power_state.pwrStateResidencyTicks::UNDEFINED   2147483750                       # Cumulative time (in ticks) in various power states (Tick)
system.mem_ctrls13.power_state.pwrStateResidencyTicks::UNDEFINED   2147483750                       # Cumulative time (in ticks) in various power states (Tick)
system.mem_ctrls130.power_state.pwrStateResidencyTicks::UNDEFINED   2147483750                       # Cumulative time (in ticks) in various power states (Tick)
system.mem_ctrls131.power_state.pwrStateResidencyTicks::UNDEFINED   2147483750                       # Cumulative time (in ticks) in various power states (Tick)
system.mem_ctrls132.power_state.pwrStateResidencyTicks::UNDEFINED   2147483750                       # Cumulative time (in ticks) in various power states (Tick)
system.mem_ctrls133.power_state.pwrStateResidencyTicks::UNDEFINED   2147483750                       # Cumulative time (in ticks) in various power states (Tick)
system.mem_ctrls134.power_state.pwrStateResidencyTicks::UNDEFINED   2147483750                       # Cumulative time (in ticks) in various power states (Tick)
system.mem_ctrls135.power_state.pwrStateResidencyTicks::UNDEFINED   2147483750                       # Cumulative time (in ticks) in various power states (Tick)
system.mem_ctrls136.power_state.pwrStateResidencyTicks::UNDEFINED   2147483750                       # Cumulative time (in ticks) in various power states (Tick)
system.mem_ctrls137.power_state.pwrStateResidencyTicks::UNDEFINED   2147483750                       # Cumulative time (in ticks) in various power states (Tick)
system.mem_ctrls138.power_state.pwrStateResidencyTicks::UNDEFINED   2147483750                       # Cumulative time (in ticks) in various power states (Tick)
system.mem_ctrls139.power_state.pwrStateResidencyTicks::UNDEFINED   2147483750                       # Cumulative time (in ticks) in various power states (Tick)
system.mem_ctrls14.power_state.pwrStateResidencyTicks::UNDEFINED   2147483750                       # Cumulative time (in ticks) in various power states (Tick)
system.mem_ctrls140.power_state.pwrStateResidencyTicks::UNDEFINED   2147483750                       # Cumulative time (in ticks) in various power states (Tick)
system.mem_ctrls141.power_state.pwrStateResidencyTicks::UNDEFINED   2147483750                       # Cumulative time (in ticks) in various power states (Tick)
system.mem_ctrls142.power_state.pwrStateResidencyTicks::UNDEFINED   2147483750                       # Cumulative time (in ticks) in various power states (Tick)
system.mem_ctrls143.power_state.pwrStateResidencyTicks::UNDEFINED   2147483750                       # Cumulative time (in ticks) in various power states (Tick)
system.mem_ctrls144.power_state.pwrStateResidencyTicks::UNDEFINED   2147483750                       # Cumulative time (in ticks) in various power states (Tick)
system.mem_ctrls145.power_state.pwrStateResidencyTicks::UNDEFINED   2147483750                       # Cumulative time (in ticks) in various power states (Tick)
system.mem_ctrls146.power_state.pwrStateResidencyTicks::UNDEFINED   2147483750                       # Cumulative time (in ticks) in various power states (Tick)
system.mem_ctrls147.power_state.pwrStateResidencyTicks::UNDEFINED   2147483750                       # Cumulative time (in ticks) in various power states (Tick)
system.mem_ctrls148.power_state.pwrStateResidencyTicks::UNDEFINED   2147483750                       # Cumulative time (in ticks) in various power states (Tick)
system.mem_ctrls149.power_state.pwrStateResidencyTicks::UNDEFINED   2147483750                       # Cumulative time (in ticks) in various power states (Tick)
system.mem_ctrls15.power_state.pwrStateResidencyTicks::UNDEFINED   2147483750                       # Cumulative time (in ticks) in various power states (Tick)
system.mem_ctrls150.power_state.pwrStateResidencyTicks::UNDEFINED   2147483750                       # Cumulative time (in ticks) in various power states (Tick)
system.mem_ctrls151.power_state.pwrStateResidencyTicks::UNDEFINED   2147483750                       # Cumulative time (in ticks) in various power states (Tick)
system.mem_ctrls152.power_state.pwrStateResidencyTicks::UNDEFINED   2147483750                       # Cumulative time (in ticks) in various power states (Tick)
system.mem_ctrls153.power_state.pwrStateResidencyTicks::UNDEFINED   2147483750                       # Cumulative time (in ticks) in various power states (Tick)
system.mem_ctrls154.power_state.pwrStateResidencyTicks::UNDEFINED   2147483750                       # Cumulative time (in ticks) in various power states (Tick)
system.mem_ctrls155.power_state.pwrStateResidencyTicks::UNDEFINED   2147483750                       # Cumulative time (in ticks) in various power states (Tick)
system.mem_ctrls156.power_state.pwrStateResidencyTicks::UNDEFINED   2147483750                       # Cumulative time (in ticks) in various power states (Tick)
system.mem_ctrls157.power_state.pwrStateResidencyTicks::UNDEFINED   2147483750                       # Cumulative time (in ticks) in various power states (Tick)
system.mem_ctrls158.power_state.pwrStateResidencyTicks::UNDEFINED   2147483750                       # Cumulative time (in ticks) in various power states (Tick)
system.mem_ctrls159.power_state.pwrStateResidencyTicks::UNDEFINED   2147483750                       # Cumulative time (in ticks) in various power states (Tick)
system.mem_ctrls16.power_state.pwrStateResidencyTicks::UNDEFINED   2147483750                       # Cumulative time (in ticks) in various power states (Tick)
system.mem_ctrls17.power_state.pwrStateResidencyTicks::UNDEFINED   2147483750                       # Cumulative time (in ticks) in various power states (Tick)
system.mem_ctrls18.power_state.pwrStateResidencyTicks::UNDEFINED   2147483750                       # Cumulative time (in ticks) in various power states (Tick)
system.mem_ctrls19.power_state.pwrStateResidencyTicks::UNDEFINED   2147483750                       # Cumulative time (in ticks) in various power states (Tick)
system.mem_ctrls2.power_state.pwrStateResidencyTicks::UNDEFINED   2147483750                       # Cumulative time (in ticks) in various power states (Tick)
system.mem_ctrls20.power_state.pwrStateResidencyTicks::UNDEFINED   2147483750                       # Cumulative time (in ticks) in various power states (Tick)
system.mem_ctrls21.power_state.pwrStateResidencyTicks::UNDEFINED   2147483750                       # Cumulative time (in ticks) in various power states (Tick)
system.mem_ctrls22.power_state.pwrStateResidencyTicks::UNDEFINED   2147483750                       # Cumulative time (in ticks) in various power states (Tick)
system.mem_ctrls23.power_state.pwrStateResidencyTicks::UNDEFINED   2147483750                       # Cumulative time (in ticks) in various power states (Tick)
system.mem_ctrls24.power_state.pwrStateResidencyTicks::UNDEFINED   2147483750                       # Cumulative time (in ticks) in various power states (Tick)
system.mem_ctrls25.power_state.pwrStateResidencyTicks::UNDEFINED   2147483750                       # Cumulative time (in ticks) in various power states (Tick)
system.mem_ctrls26.power_state.pwrStateResidencyTicks::UNDEFINED   2147483750                       # Cumulative time (in ticks) in various power states (Tick)
system.mem_ctrls27.power_state.pwrStateResidencyTicks::UNDEFINED   2147483750                       # Cumulative time (in ticks) in various power states (Tick)
system.mem_ctrls28.power_state.pwrStateResidencyTicks::UNDEFINED   2147483750                       # Cumulative time (in ticks) in various power states (Tick)
system.mem_ctrls29.power_state.pwrStateResidencyTicks::UNDEFINED   2147483750                       # Cumulative time (in ticks) in various power states (Tick)
system.mem_ctrls3.power_state.pwrStateResidencyTicks::UNDEFINED   2147483750                       # Cumulative time (in ticks) in various power states (Tick)
system.mem_ctrls30.power_state.pwrStateResidencyTicks::UNDEFINED   2147483750                       # Cumulative time (in ticks) in various power states (Tick)
system.mem_ctrls31.power_state.pwrStateResidencyTicks::UNDEFINED   2147483750                       # Cumulative time (in ticks) in various power states (Tick)
system.mem_ctrls32.power_state.pwrStateResidencyTicks::UNDEFINED   2147483750                       # Cumulative time (in ticks) in various power states (Tick)
system.mem_ctrls33.power_state.pwrStateResidencyTicks::UNDEFINED   2147483750                       # Cumulative time (in ticks) in various power states (Tick)
system.mem_ctrls34.power_state.pwrStateResidencyTicks::UNDEFINED   2147483750                       # Cumulative time (in ticks) in various power states (Tick)
system.mem_ctrls35.power_state.pwrStateResidencyTicks::UNDEFINED   2147483750                       # Cumulative time (in ticks) in various power states (Tick)
system.mem_ctrls36.power_state.pwrStateResidencyTicks::UNDEFINED   2147483750                       # Cumulative time (in ticks) in various power states (Tick)
system.mem_ctrls37.power_state.pwrStateResidencyTicks::UNDEFINED   2147483750                       # Cumulative time (in ticks) in various power states (Tick)
system.mem_ctrls38.power_state.pwrStateResidencyTicks::UNDEFINED   2147483750                       # Cumulative time (in ticks) in various power states (Tick)
system.mem_ctrls39.power_state.pwrStateResidencyTicks::UNDEFINED   2147483750                       # Cumulative time (in ticks) in various power states (Tick)
system.mem_ctrls4.power_state.pwrStateResidencyTicks::UNDEFINED   2147483750                       # Cumulative time (in ticks) in various power states (Tick)
system.mem_ctrls40.power_state.pwrStateResidencyTicks::UNDEFINED   2147483750                       # Cumulative time (in ticks) in various power states (Tick)
system.mem_ctrls41.power_state.pwrStateResidencyTicks::UNDEFINED   2147483750                       # Cumulative time (in ticks) in various power states (Tick)
system.mem_ctrls42.power_state.pwrStateResidencyTicks::UNDEFINED   2147483750                       # Cumulative time (in ticks) in various power states (Tick)
system.mem_ctrls43.power_state.pwrStateResidencyTicks::UNDEFINED   2147483750                       # Cumulative time (in ticks) in various power states (Tick)
system.mem_ctrls44.power_state.pwrStateResidencyTicks::UNDEFINED   2147483750                       # Cumulative time (in ticks) in various power states (Tick)
system.mem_ctrls45.power_state.pwrStateResidencyTicks::UNDEFINED   2147483750                       # Cumulative time (in ticks) in various power states (Tick)
system.mem_ctrls46.power_state.pwrStateResidencyTicks::UNDEFINED   2147483750                       # Cumulative time (in ticks) in various power states (Tick)
system.mem_ctrls47.power_state.pwrStateResidencyTicks::UNDEFINED   2147483750                       # Cumulative time (in ticks) in various power states (Tick)
system.mem_ctrls48.power_state.pwrStateResidencyTicks::UNDEFINED   2147483750                       # Cumulative time (in ticks) in various power states (Tick)
system.mem_ctrls49.power_state.pwrStateResidencyTicks::UNDEFINED   2147483750                       # Cumulative time (in ticks) in various power states (Tick)
system.mem_ctrls5.power_state.pwrStateResidencyTicks::UNDEFINED   2147483750                       # Cumulative time (in ticks) in various power states (Tick)
system.mem_ctrls50.power_state.pwrStateResidencyTicks::UNDEFINED   2147483750                       # Cumulative time (in ticks) in various power states (Tick)
system.mem_ctrls51.power_state.pwrStateResidencyTicks::UNDEFINED   2147483750                       # Cumulative time (in ticks) in various power states (Tick)
system.mem_ctrls52.power_state.pwrStateResidencyTicks::UNDEFINED   2147483750                       # Cumulative time (in ticks) in various power states (Tick)
system.mem_ctrls53.power_state.pwrStateResidencyTicks::UNDEFINED   2147483750                       # Cumulative time (in ticks) in various power states (Tick)
system.mem_ctrls54.power_state.pwrStateResidencyTicks::UNDEFINED   2147483750                       # Cumulative time (in ticks) in various power states (Tick)
system.mem_ctrls55.power_state.pwrStateResidencyTicks::UNDEFINED   2147483750                       # Cumulative time (in ticks) in various power states (Tick)
system.mem_ctrls56.power_state.pwrStateResidencyTicks::UNDEFINED   2147483750                       # Cumulative time (in ticks) in various power states (Tick)
system.mem_ctrls57.power_state.pwrStateResidencyTicks::UNDEFINED   2147483750                       # Cumulative time (in ticks) in various power states (Tick)
system.mem_ctrls58.power_state.pwrStateResidencyTicks::UNDEFINED   2147483750                       # Cumulative time (in ticks) in various power states (Tick)
system.mem_ctrls59.power_state.pwrStateResidencyTicks::UNDEFINED   2147483750                       # Cumulative time (in ticks) in various power states (Tick)
system.mem_ctrls6.power_state.pwrStateResidencyTicks::UNDEFINED   2147483750                       # Cumulative time (in ticks) in various power states (Tick)
system.mem_ctrls60.power_state.pwrStateResidencyTicks::UNDEFINED   2147483750                       # Cumulative time (in ticks) in various power states (Tick)
system.mem_ctrls61.power_state.pwrStateResidencyTicks::UNDEFINED   2147483750                       # Cumulative time (in ticks) in various power states (Tick)
system.mem_ctrls62.power_state.pwrStateResidencyTicks::UNDEFINED   2147483750                       # Cumulative time (in ticks) in various power states (Tick)
system.mem_ctrls63.power_state.pwrStateResidencyTicks::UNDEFINED   2147483750                       # Cumulative time (in ticks) in various power states (Tick)
system.mem_ctrls64.power_state.pwrStateResidencyTicks::UNDEFINED   2147483750                       # Cumulative time (in ticks) in various power states (Tick)
system.mem_ctrls65.power_state.pwrStateResidencyTicks::UNDEFINED   2147483750                       # Cumulative time (in ticks) in various power states (Tick)
system.mem_ctrls66.power_state.pwrStateResidencyTicks::UNDEFINED   2147483750                       # Cumulative time (in ticks) in various power states (Tick)
system.mem_ctrls67.power_state.pwrStateResidencyTicks::UNDEFINED   2147483750                       # Cumulative time (in ticks) in various power states (Tick)
system.mem_ctrls68.power_state.pwrStateResidencyTicks::UNDEFINED   2147483750                       # Cumulative time (in ticks) in various power states (Tick)
system.mem_ctrls69.power_state.pwrStateResidencyTicks::UNDEFINED   2147483750                       # Cumulative time (in ticks) in various power states (Tick)
system.mem_ctrls7.power_state.pwrStateResidencyTicks::UNDEFINED   2147483750                       # Cumulative time (in ticks) in various power states (Tick)
system.mem_ctrls70.power_state.pwrStateResidencyTicks::UNDEFINED   2147483750                       # Cumulative time (in ticks) in various power states (Tick)
system.mem_ctrls71.power_state.pwrStateResidencyTicks::UNDEFINED   2147483750                       # Cumulative time (in ticks) in various power states (Tick)
system.mem_ctrls72.power_state.pwrStateResidencyTicks::UNDEFINED   2147483750                       # Cumulative time (in ticks) in various power states (Tick)
system.mem_ctrls73.power_state.pwrStateResidencyTicks::UNDEFINED   2147483750                       # Cumulative time (in ticks) in various power states (Tick)
system.mem_ctrls74.power_state.pwrStateResidencyTicks::UNDEFINED   2147483750                       # Cumulative time (in ticks) in various power states (Tick)
system.mem_ctrls75.power_state.pwrStateResidencyTicks::UNDEFINED   2147483750                       # Cumulative time (in ticks) in various power states (Tick)
system.mem_ctrls76.power_state.pwrStateResidencyTicks::UNDEFINED   2147483750                       # Cumulative time (in ticks) in various power states (Tick)
system.mem_ctrls77.power_state.pwrStateResidencyTicks::UNDEFINED   2147483750                       # Cumulative time (in ticks) in various power states (Tick)
system.mem_ctrls78.power_state.pwrStateResidencyTicks::UNDEFINED   2147483750                       # Cumulative time (in ticks) in various power states (Tick)
system.mem_ctrls79.power_state.pwrStateResidencyTicks::UNDEFINED   2147483750                       # Cumulative time (in ticks) in various power states (Tick)
system.mem_ctrls8.power_state.pwrStateResidencyTicks::UNDEFINED   2147483750                       # Cumulative time (in ticks) in various power states (Tick)
system.mem_ctrls80.power_state.pwrStateResidencyTicks::UNDEFINED   2147483750                       # Cumulative time (in ticks) in various power states (Tick)
system.mem_ctrls81.power_state.pwrStateResidencyTicks::UNDEFINED   2147483750                       # Cumulative time (in ticks) in various power states (Tick)
system.mem_ctrls82.power_state.pwrStateResidencyTicks::UNDEFINED   2147483750                       # Cumulative time (in ticks) in various power states (Tick)
system.mem_ctrls83.power_state.pwrStateResidencyTicks::UNDEFINED   2147483750                       # Cumulative time (in ticks) in various power states (Tick)
system.mem_ctrls84.power_state.pwrStateResidencyTicks::UNDEFINED   2147483750                       # Cumulative time (in ticks) in various power states (Tick)
system.mem_ctrls85.power_state.pwrStateResidencyTicks::UNDEFINED   2147483750                       # Cumulative time (in ticks) in various power states (Tick)
system.mem_ctrls86.power_state.pwrStateResidencyTicks::UNDEFINED   2147483750                       # Cumulative time (in ticks) in various power states (Tick)
system.mem_ctrls87.power_state.pwrStateResidencyTicks::UNDEFINED   2147483750                       # Cumulative time (in ticks) in various power states (Tick)
system.mem_ctrls88.power_state.pwrStateResidencyTicks::UNDEFINED   2147483750                       # Cumulative time (in ticks) in various power states (Tick)
system.mem_ctrls89.power_state.pwrStateResidencyTicks::UNDEFINED   2147483750                       # Cumulative time (in ticks) in various power states (Tick)
system.mem_ctrls9.power_state.pwrStateResidencyTicks::UNDEFINED   2147483750                       # Cumulative time (in ticks) in various power states (Tick)
system.mem_ctrls90.power_state.pwrStateResidencyTicks::UNDEFINED   2147483750                       # Cumulative time (in ticks) in various power states (Tick)
system.mem_ctrls91.power_state.pwrStateResidencyTicks::UNDEFINED   2147483750                       # Cumulative time (in ticks) in various power states (Tick)
system.mem_ctrls92.power_state.pwrStateResidencyTicks::UNDEFINED   2147483750                       # Cumulative time (in ticks) in various power states (Tick)
system.mem_ctrls93.power_state.pwrStateResidencyTicks::UNDEFINED   2147483750                       # Cumulative time (in ticks) in various power states (Tick)
system.mem_ctrls94.power_state.pwrStateResidencyTicks::UNDEFINED   2147483750                       # Cumulative time (in ticks) in various power states (Tick)
system.mem_ctrls95.power_state.pwrStateResidencyTicks::UNDEFINED   2147483750                       # Cumulative time (in ticks) in various power states (Tick)
system.mem_ctrls96.power_state.pwrStateResidencyTicks::UNDEFINED   2147483750                       # Cumulative time (in ticks) in various power states (Tick)
system.mem_ctrls97.power_state.pwrStateResidencyTicks::UNDEFINED   2147483750                       # Cumulative time (in ticks) in various power states (Tick)
system.mem_ctrls98.power_state.pwrStateResidencyTicks::UNDEFINED   2147483750                       # Cumulative time (in ticks) in various power states (Tick)
system.mem_ctrls99.power_state.pwrStateResidencyTicks::UNDEFINED   2147483750                       # Cumulative time (in ticks) in various power states (Tick)
system.ruby.m_outstandReqHistSeqr::bucket_size            1                       (Unspecified)
system.ruby.m_outstandReqHistSeqr::max_bucket            9                       (Unspecified)
system.ruby.m_outstandReqHistSeqr::samples      8580345                       (Unspecified)
system.ruby.m_outstandReqHistSeqr::mean             1                       (Unspecified)
system.ruby.m_outstandReqHistSeqr::gmean            1                       (Unspecified)
system.ruby.m_outstandReqHistSeqr        |           0      0.00%      0.00% |     8580345    100.00%    100.00% |           0      0.00%    100.00% |           0      0.00%    100.00% |           0      0.00%    100.00% |           0      0.00%    100.00% |           0      0.00%    100.00% |           0      0.00%    100.00% |           0      0.00%    100.00% |           0      0.00%    100.00% (Unspecified)
system.ruby.m_outstandReqHistSeqr::total      8580345                       (Unspecified)
system.ruby.m_latencyHistSeqr::bucket_size            1                       (Unspecified)
system.ruby.m_latencyHistSeqr::max_bucket            9                       (Unspecified)
system.ruby.m_latencyHistSeqr::samples        8580345                       (Unspecified)
system.ruby.m_latencyHistSeqr::mean                 1                       (Unspecified)
system.ruby.m_latencyHistSeqr::gmean                1                       (Unspecified)
system.ruby.m_latencyHistSeqr            |           0      0.00%      0.00% |     8580345    100.00%    100.00% |           0      0.00%    100.00% |           0      0.00%    100.00% |           0      0.00%    100.00% |           0      0.00%    100.00% |           0      0.00%    100.00% |           0      0.00%    100.00% |           0      0.00%    100.00% |           0      0.00%    100.00% (Unspecified)
system.ruby.m_latencyHistSeqr::total          8580345                       (Unspecified)
system.ruby.m_hitLatencyHistSeqr::bucket_size            1                       (Unspecified)
system.ruby.m_hitLatencyHistSeqr::max_bucket            9                       (Unspecified)
system.ruby.m_hitLatencyHistSeqr::samples      8580345                       (Unspecified)
system.ruby.m_hitLatencyHistSeqr::mean              1                       (Unspecified)
system.ruby.m_hitLatencyHistSeqr::gmean             1                       (Unspecified)
system.ruby.m_hitLatencyHistSeqr         |           0      0.00%      0.00% |     8580345    100.00%    100.00% |           0      0.00%    100.00% |           0      0.00%    100.00% |           0      0.00%    100.00% |           0      0.00%    100.00% |           0      0.00%    100.00% |           0      0.00%    100.00% |           0      0.00%    100.00% |           0      0.00%    100.00% (Unspecified)
system.ruby.m_hitLatencyHistSeqr::total       8580345                       (Unspecified)
system.ruby.Directory_Controller.Receive_Request |       26737      0.62%      0.62% |       26729      0.62%      1.25% |       26899      0.63%      1.87% |       27007      0.63%      2.50% |       26524      0.62%      3.12% |       26959      0.63%      3.75% |       26676      0.62%      4.37% |       26934      0.63%      5.00% |       26959      0.63%      5.63% |       26918      0.63%      6.25% |       26547      0.62%      6.87% |       26685      0.62%      7.50% |       27025      0.63%      8.13% |       26727      0.62%      8.75% |       26798      0.62%      9.37% |       26884      0.63%     10.00% |       26794      0.62%     10.62% |       26896      0.63%     11.25% |       26989      0.63%     11.88% |       26679      0.62%     12.50% |       27069      0.63%     13.13% |       26753      0.62%     13.76% |       26829      0.63%     14.38% |       26784      0.62%     15.01% |       26589      0.62%     15.63% |       26703      0.62%     16.25% |       26832      0.63%     16.87% |       26970      0.63%     17.50% |       26993      0.63%     18.13% |       26762      0.62%     18.76% |       26850      0.63%     19.38% |       26837      0.63%     20.01% |       26884      0.63%     20.63% |       26815      0.63%     21.26% |       26659      0.62%     21.88% |       26735      0.62%     22.50% |       26834      0.63%     23.13% |       26857      0.63%     23.75% |       26607      0.62%     24.38% |       26687      0.62%     25.00% |       26893      0.63%     25.62% |       26809      0.62%     26.25% |       26750      0.62%     26.87% |       27022      0.63%     27.50% |       26803      0.62%     28.13% |       26799      0.62%     28.75% |       26809      0.62%     29.38% |       26921      0.63%     30.00% |       26906      0.63%     30.63% |       26715      0.62%     31.25% |       26662      0.62%     31.88% |       26834      0.63%     32.50% |       26592      0.62%     33.12% |       26993      0.63%     33.75% |       26956      0.63%     34.38% |       26734      0.62%     35.00% |       26646      0.62%     35.62% |       26537      0.62%     36.24% |       26696      0.62%     36.86% |       26869      0.63%     37.49% |       27056      0.63%     38.12% |       26613      0.62%     38.74% |       26929      0.63%     39.37% |       27039      0.63%     40.00% |       26783      0.62%     40.62% |       26912      0.63%     41.25% |       26989      0.63%     41.88% |       26873      0.63%     42.51% |       26775      0.62%     43.13% |       26703      0.62%     43.75% |       26704      0.62%     44.37% |       26683      0.62%     45.00% |       26942      0.63%     45.62% |       26928      0.63%     46.25% |       26568      0.62%     46.87% |       26984      0.63%     47.50% |       27036      0.63%     48.13% |       26671      0.62%     48.75% |       26882      0.63%     49.38% |       26839      0.63%     50.00% |       26603      0.62%     50.62% |       27000      0.63%     51.25% |       26701      0.62%     51.88% |       26862      0.63%     52.50% |       26998      0.63%     53.13% |       26693      0.62%     53.75% |       26803      0.62%     54.38% |       26860      0.63%     55.00% |       27295      0.64%     55.64% |       26741      0.62%     56.26% |       26933      0.63%     56.89% |       27034      0.63%     57.52% |       26883      0.63%     58.15% |       26626      0.62%     58.77% |       27024      0.63%     59.40% |       26786      0.62%     60.02% |       27077      0.63%     60.65% |       26815      0.63%     61.28% |       26787      0.62%     61.90% |       26672      0.62%     62.53% |       26866      0.63%     63.15% |       26709      0.62%     63.77% |       27000      0.63%     64.40% |       26961      0.63%     65.03% |       26845      0.63%     65.66% |       26939      0.63%     66.29% |       26812      0.62%     66.91% |       26447      0.62%     67.53% |       26646      0.62%     68.15% |       26813      0.62%     68.77% |       26882      0.63%     69.40% |       26739      0.62%     70.02% |       26750      0.62%     70.65% |       26719      0.62%     71.27% |       26806      0.62%     71.89% |       26862      0.63%     72.52% |       26874      0.63%     73.15% |       26739      0.62%     73.77% |       26979      0.63%     74.40% |       26892      0.63%     75.03% |       26466      0.62%     75.64% |       26786      0.62%     76.27% |       26903      0.63%     76.89% |       26832      0.63%     77.52% |       26721      0.62%     78.14% |       26851      0.63%     78.77% |       26841      0.63%     79.39% |       26726      0.62%     80.02% |       26918      0.63%     80.64% |       26804      0.62%     81.27% |       26548      0.62%     81.89% |       26659      0.62%     82.51% |       26965      0.63%     83.14% |       26885      0.63%     83.76% |       26524      0.62%     84.38% |       26892      0.63%     85.01% |       26553      0.62%     85.63% |       26777      0.62%     86.25% |       27129      0.63%     86.89% |       26587      0.62%     87.51% |       26877      0.63%     88.13% |       26828      0.63%     88.76% |       26671      0.62%     89.38% |       26841      0.63%     90.00% |       26609      0.62%     90.62% |       26643      0.62%     91.25% |       26851      0.63%     91.87% |       26837      0.63%     92.50% |       26943      0.63%     93.12% |       26715      0.62%     93.75% |       26741      0.62%     94.37% |       26616      0.62%     94.99% |       26829      0.63%     95.62% |       26881      0.63%     96.24% |       27014      0.63%     96.87% |       26760      0.62%     97.50% |       27032      0.63%     98.13% |       26887      0.63%     98.75% |       26882      0.63%     99.38% |       26595      0.62%    100.00% (Unspecified)
system.ruby.Directory_Controller.Receive_Request::total      4290162                       (Unspecified)
system.ruby.Directory_Controller.Receive_Response |       26780      0.62%      0.62% |       26185      0.61%      1.23% |       27205      0.63%      1.87% |       26723      0.62%      2.49% |       26707      0.62%      3.11% |       26787      0.62%      3.74% |       26782      0.62%      4.36% |       26966      0.63%      4.99% |       26886      0.63%      5.62% |       27026      0.63%      6.25% |       27014      0.63%      6.88% |       26992      0.63%      7.51% |       26622      0.62%      8.13% |       26731      0.62%      8.75% |       26940      0.63%      9.38% |       26406      0.62%      9.99% |       26892      0.63%     10.62% |       26675      0.62%     11.24% |       26880      0.63%     11.87% |       26655      0.62%     12.49% |       26646      0.62%     13.11% |       26800      0.62%     13.74% |       26930      0.63%     14.36% |       27094      0.63%     15.00% |       27033      0.63%     15.63% |       26518      0.62%     16.24% |       27003      0.63%     16.87% |       26678      0.62%     17.49% |       26551      0.62%     18.11% |       26655      0.62%     18.73% |       26791      0.62%     19.36% |       26761      0.62%     19.98% |       26552      0.62%     20.60% |       26933      0.63%     21.23% |       27248      0.64%     21.87% |       26870      0.63%     22.49% |       26846      0.63%     23.12% |       27121      0.63%     23.75% |       26808      0.62%     24.37% |       26993      0.63%     25.00% |       26865      0.63%     25.63% |       26870      0.63%     26.26% |       26623      0.62%     26.88% |       26891      0.63%     27.50% |       26942      0.63%     28.13% |       26940      0.63%     28.76% |       26873      0.63%     29.39% |       26830      0.63%     30.01% |       26763      0.62%     30.63% |       26516      0.62%     31.25% |       26849      0.63%     31.88% |       26698      0.62%     32.50% |       26826      0.63%     33.13% |       26614      0.62%     33.75% |       26929      0.63%     34.37% |       26967      0.63%     35.00% |       26804      0.62%     35.63% |       26728      0.62%     36.25% |       26991      0.63%     36.88% |       26956      0.63%     37.51% |       26709      0.62%     38.13% |       26614      0.62%     38.75% |       26715      0.62%     39.37% |       27212      0.63%     40.01% |       26882      0.63%     40.63% |       26668      0.62%     41.26% |       26879      0.63%     41.88% |       26782      0.62%     42.51% |       26794      0.62%     43.13% |       26791      0.62%     43.76% |       26892      0.63%     44.38% |       26725      0.62%     45.01% |       26568      0.62%     45.63% |       26527      0.62%     46.24% |       27071      0.63%     46.87% |       26705      0.62%     47.50% |       26639      0.62%     48.12% |       26819      0.63%     48.74% |       26779      0.62%     49.37% |       26493      0.62%     49.98% |       26872      0.63%     50.61% |       26684      0.62%     51.23% |       26696      0.62%     51.86% |       26668      0.62%     52.48% |       26640      0.62%     53.10% |       27048      0.63%     53.73% |       26898      0.63%     54.36% |       27028      0.63%     54.99% |       26837      0.63%     55.61% |       27031      0.63%     56.24% |       26707      0.62%     56.86% |       26729      0.62%     57.49% |       27064      0.63%     58.12% |       26488      0.62%     58.73% |       26845      0.63%     59.36% |       26600      0.62%     59.98% |       26763      0.62%     60.60% |       26704      0.62%     61.23% |       26880      0.63%     61.85% |       26925      0.63%     62.48% |       26838      0.63%     63.11% |       26916      0.63%     63.73% |       26911      0.63%     64.36% |       26855      0.63%     64.99% |       26671      0.62%     65.61% |       27087      0.63%     66.24% |       26959      0.63%     66.87% |       26696      0.62%     67.49% |       26868      0.63%     68.12% |       26697      0.62%     68.74% |       26804      0.62%     69.36% |       26620      0.62%     69.98% |       27165      0.63%     70.62% |       26946      0.63%     71.25% |       26795      0.62%     71.87% |       26880      0.63%     72.50% |       26853      0.63%     73.12% |       26835      0.63%     73.75% |       27008      0.63%     74.38% |       26608      0.62%     75.00% |       26954      0.63%     75.63% |       26640      0.62%     76.25% |       27056      0.63%     76.88% |       26680      0.62%     77.50% |       26853      0.63%     78.13% |       26663      0.62%     78.75% |       26787      0.62%     79.37% |       26675      0.62%     79.99% |       27130      0.63%     80.63% |       27090      0.63%     81.26% |       26923      0.63%     81.88% |       26540      0.62%     82.50% |       26810      0.62%     83.13% |       27122      0.63%     83.76% |       26463      0.62%     84.38% |       26912      0.63%     85.00% |       26734      0.62%     85.63% |       26695      0.62%     86.25% |       26657      0.62%     86.87% |       26509      0.62%     87.49% |       26638      0.62%     88.11% |       26569      0.62%     88.73% |       26871      0.63%     89.36% |       26869      0.63%     89.98% |       26693      0.62%     90.60% |       27003      0.63%     91.23% |       26895      0.63%     91.86% |       26863      0.63%     92.49% |       26679      0.62%     93.11% |       26947      0.63%     93.74% |       27038      0.63%     94.37% |       27032      0.63%     95.00% |       26429      0.62%     95.61% |       26783      0.62%     96.24% |       26889      0.63%     96.86% |       26942      0.63%     97.49% |       26676      0.62%     98.11% |       26931      0.63%     98.74% |       27050      0.63%     99.37% |       26935      0.63%    100.00% (Unspecified)
system.ruby.Directory_Controller.Receive_Response::total      4290168                       (Unspecified)
system.ruby.Directory_Controller.I.Receive_Request |       26737      0.62%      0.62% |       26729      0.62%      1.25% |       26899      0.63%      1.87% |       27007      0.63%      2.50% |       26524      0.62%      3.12% |       26959      0.63%      3.75% |       26676      0.62%      4.37% |       26934      0.63%      5.00% |       26959      0.63%      5.63% |       26918      0.63%      6.25% |       26547      0.62%      6.87% |       26685      0.62%      7.50% |       27025      0.63%      8.13% |       26727      0.62%      8.75% |       26798      0.62%      9.37% |       26884      0.63%     10.00% |       26794      0.62%     10.62% |       26896      0.63%     11.25% |       26989      0.63%     11.88% |       26679      0.62%     12.50% |       27069      0.63%     13.13% |       26753      0.62%     13.76% |       26829      0.63%     14.38% |       26784      0.62%     15.01% |       26589      0.62%     15.63% |       26703      0.62%     16.25% |       26832      0.63%     16.87% |       26970      0.63%     17.50% |       26993      0.63%     18.13% |       26762      0.62%     18.76% |       26850      0.63%     19.38% |       26837      0.63%     20.01% |       26884      0.63%     20.63% |       26815      0.63%     21.26% |       26659      0.62%     21.88% |       26735      0.62%     22.50% |       26834      0.63%     23.13% |       26857      0.63%     23.75% |       26607      0.62%     24.38% |       26687      0.62%     25.00% |       26893      0.63%     25.62% |       26809      0.62%     26.25% |       26750      0.62%     26.87% |       27022      0.63%     27.50% |       26803      0.62%     28.13% |       26799      0.62%     28.75% |       26809      0.62%     29.38% |       26921      0.63%     30.00% |       26906      0.63%     30.63% |       26715      0.62%     31.25% |       26662      0.62%     31.88% |       26834      0.63%     32.50% |       26592      0.62%     33.12% |       26993      0.63%     33.75% |       26956      0.63%     34.38% |       26734      0.62%     35.00% |       26646      0.62%     35.62% |       26537      0.62%     36.24% |       26696      0.62%     36.86% |       26869      0.63%     37.49% |       27056      0.63%     38.12% |       26613      0.62%     38.74% |       26929      0.63%     39.37% |       27039      0.63%     40.00% |       26783      0.62%     40.62% |       26912      0.63%     41.25% |       26989      0.63%     41.88% |       26873      0.63%     42.51% |       26775      0.62%     43.13% |       26703      0.62%     43.75% |       26704      0.62%     44.37% |       26683      0.62%     45.00% |       26942      0.63%     45.62% |       26928      0.63%     46.25% |       26568      0.62%     46.87% |       26984      0.63%     47.50% |       27036      0.63%     48.13% |       26671      0.62%     48.75% |       26882      0.63%     49.38% |       26839      0.63%     50.00% |       26603      0.62%     50.62% |       27000      0.63%     51.25% |       26701      0.62%     51.88% |       26862      0.63%     52.50% |       26998      0.63%     53.13% |       26693      0.62%     53.75% |       26803      0.62%     54.38% |       26860      0.63%     55.00% |       27295      0.64%     55.64% |       26741      0.62%     56.26% |       26933      0.63%     56.89% |       27034      0.63%     57.52% |       26883      0.63%     58.15% |       26626      0.62%     58.77% |       27024      0.63%     59.40% |       26786      0.62%     60.02% |       27077      0.63%     60.65% |       26815      0.63%     61.28% |       26787      0.62%     61.90% |       26672      0.62%     62.53% |       26866      0.63%     63.15% |       26709      0.62%     63.77% |       27000      0.63%     64.40% |       26961      0.63%     65.03% |       26845      0.63%     65.66% |       26939      0.63%     66.29% |       26812      0.62%     66.91% |       26447      0.62%     67.53% |       26646      0.62%     68.15% |       26813      0.62%     68.77% |       26882      0.63%     69.40% |       26739      0.62%     70.02% |       26750      0.62%     70.65% |       26719      0.62%     71.27% |       26806      0.62%     71.89% |       26862      0.63%     72.52% |       26874      0.63%     73.15% |       26739      0.62%     73.77% |       26979      0.63%     74.40% |       26892      0.63%     75.03% |       26466      0.62%     75.64% |       26786      0.62%     76.27% |       26903      0.63%     76.89% |       26832      0.63%     77.52% |       26721      0.62%     78.14% |       26851      0.63%     78.77% |       26841      0.63%     79.39% |       26726      0.62%     80.02% |       26918      0.63%     80.64% |       26804      0.62%     81.27% |       26548      0.62%     81.89% |       26659      0.62%     82.51% |       26965      0.63%     83.14% |       26885      0.63%     83.76% |       26524      0.62%     84.38% |       26892      0.63%     85.01% |       26553      0.62%     85.63% |       26777      0.62%     86.25% |       27129      0.63%     86.89% |       26587      0.62%     87.51% |       26877      0.63%     88.13% |       26828      0.63%     88.76% |       26671      0.62%     89.38% |       26841      0.63%     90.00% |       26609      0.62%     90.62% |       26643      0.62%     91.25% |       26851      0.63%     91.87% |       26837      0.63%     92.50% |       26943      0.63%     93.12% |       26715      0.62%     93.75% |       26741      0.62%     94.37% |       26616      0.62%     94.99% |       26829      0.63%     95.62% |       26881      0.63%     96.24% |       27014      0.63%     96.87% |       26760      0.62%     97.50% |       27032      0.63%     98.13% |       26887      0.63%     98.75% |       26882      0.63%     99.38% |       26595      0.62%    100.00% (Unspecified)
system.ruby.Directory_Controller.I.Receive_Request::total      4290162                       (Unspecified)
system.ruby.Directory_Controller.I.Receive_Response |       26780      0.62%      0.62% |       26185      0.61%      1.23% |       27205      0.63%      1.87% |       26723      0.62%      2.49% |       26707      0.62%      3.11% |       26787      0.62%      3.74% |       26782      0.62%      4.36% |       26966      0.63%      4.99% |       26886      0.63%      5.62% |       27026      0.63%      6.25% |       27014      0.63%      6.88% |       26992      0.63%      7.51% |       26622      0.62%      8.13% |       26731      0.62%      8.75% |       26940      0.63%      9.38% |       26406      0.62%      9.99% |       26892      0.63%     10.62% |       26675      0.62%     11.24% |       26880      0.63%     11.87% |       26655      0.62%     12.49% |       26646      0.62%     13.11% |       26800      0.62%     13.74% |       26930      0.63%     14.36% |       27094      0.63%     15.00% |       27033      0.63%     15.63% |       26518      0.62%     16.24% |       27003      0.63%     16.87% |       26678      0.62%     17.49% |       26551      0.62%     18.11% |       26655      0.62%     18.73% |       26791      0.62%     19.36% |       26761      0.62%     19.98% |       26552      0.62%     20.60% |       26933      0.63%     21.23% |       27248      0.64%     21.87% |       26870      0.63%     22.49% |       26846      0.63%     23.12% |       27121      0.63%     23.75% |       26808      0.62%     24.37% |       26993      0.63%     25.00% |       26865      0.63%     25.63% |       26870      0.63%     26.26% |       26623      0.62%     26.88% |       26891      0.63%     27.50% |       26942      0.63%     28.13% |       26940      0.63%     28.76% |       26873      0.63%     29.39% |       26830      0.63%     30.01% |       26763      0.62%     30.63% |       26516      0.62%     31.25% |       26849      0.63%     31.88% |       26698      0.62%     32.50% |       26826      0.63%     33.13% |       26614      0.62%     33.75% |       26929      0.63%     34.37% |       26967      0.63%     35.00% |       26804      0.62%     35.63% |       26728      0.62%     36.25% |       26991      0.63%     36.88% |       26956      0.63%     37.51% |       26709      0.62%     38.13% |       26614      0.62%     38.75% |       26715      0.62%     39.37% |       27212      0.63%     40.01% |       26882      0.63%     40.63% |       26668      0.62%     41.26% |       26879      0.63%     41.88% |       26782      0.62%     42.51% |       26794      0.62%     43.13% |       26791      0.62%     43.76% |       26892      0.63%     44.38% |       26725      0.62%     45.01% |       26568      0.62%     45.63% |       26527      0.62%     46.24% |       27071      0.63%     46.87% |       26705      0.62%     47.50% |       26639      0.62%     48.12% |       26819      0.63%     48.74% |       26779      0.62%     49.37% |       26493      0.62%     49.98% |       26872      0.63%     50.61% |       26684      0.62%     51.23% |       26696      0.62%     51.86% |       26668      0.62%     52.48% |       26640      0.62%     53.10% |       27048      0.63%     53.73% |       26898      0.63%     54.36% |       27028      0.63%     54.99% |       26837      0.63%     55.61% |       27031      0.63%     56.24% |       26707      0.62%     56.86% |       26729      0.62%     57.49% |       27064      0.63%     58.12% |       26488      0.62%     58.73% |       26845      0.63%     59.36% |       26600      0.62%     59.98% |       26763      0.62%     60.60% |       26704      0.62%     61.23% |       26880      0.63%     61.85% |       26925      0.63%     62.48% |       26838      0.63%     63.11% |       26916      0.63%     63.73% |       26911      0.63%     64.36% |       26855      0.63%     64.99% |       26671      0.62%     65.61% |       27087      0.63%     66.24% |       26959      0.63%     66.87% |       26696      0.62%     67.49% |       26868      0.63%     68.12% |       26697      0.62%     68.74% |       26804      0.62%     69.36% |       26620      0.62%     69.98% |       27165      0.63%     70.62% |       26946      0.63%     71.25% |       26795      0.62%     71.87% |       26880      0.63%     72.50% |       26853      0.63%     73.12% |       26835      0.63%     73.75% |       27008      0.63%     74.38% |       26608      0.62%     75.00% |       26954      0.63%     75.63% |       26640      0.62%     76.25% |       27056      0.63%     76.88% |       26680      0.62%     77.50% |       26853      0.63%     78.13% |       26663      0.62%     78.75% |       26787      0.62%     79.37% |       26675      0.62%     79.99% |       27130      0.63%     80.63% |       27090      0.63%     81.26% |       26923      0.63%     81.88% |       26540      0.62%     82.50% |       26810      0.62%     83.13% |       27122      0.63%     83.76% |       26463      0.62%     84.38% |       26912      0.63%     85.00% |       26734      0.62%     85.63% |       26695      0.62%     86.25% |       26657      0.62%     86.87% |       26509      0.62%     87.49% |       26638      0.62%     88.11% |       26569      0.62%     88.73% |       26871      0.63%     89.36% |       26869      0.63%     89.98% |       26693      0.62%     90.60% |       27003      0.63%     91.23% |       26895      0.63%     91.86% |       26863      0.63%     92.49% |       26679      0.62%     93.11% |       26947      0.63%     93.74% |       27038      0.63%     94.37% |       27032      0.63%     95.00% |       26429      0.62%     95.61% |       26783      0.62%     96.24% |       26889      0.63%     96.86% |       26942      0.63%     97.49% |       26676      0.62%     98.11% |       26931      0.63%     98.74% |       27050      0.63%     99.37% |       26935      0.63%    100.00% (Unspecified)
system.ruby.Directory_Controller.I.Receive_Response::total      4290168                       (Unspecified)
system.ruby.L1Cache_Controller.Request   |      107262      2.50%      2.50% |      106914      2.49%      4.99% |      106944      2.49%      7.49% |      107227      2.50%      9.98% |      107201      2.50%     12.48% |      106513      2.48%     14.97% |      107664      2.51%     17.48% |      106883      2.49%     19.97% |      107068      2.50%     22.46% |      107838      2.51%     24.98% |      107082      2.50%     27.47% |      107283      2.50%     29.97% |      107145      2.50%     32.47% |      107377      2.50%     34.97% |      107023      2.49%     37.47% |      107736      2.51%     39.98% |      106539      2.48%     42.46% |      107147      2.50%     44.96% |      107307      2.50%     47.46% |      107250      2.50%     49.96% |      107186      2.50%     52.46% |      107993      2.52%     54.98% |      107425      2.50%     57.48% |      107454      2.50%     59.99% |      107338      2.50%     62.49% |      107296      2.50%     64.99% |      107310      2.50%     67.49% |      107526      2.51%     70.00% |      106821      2.49%     72.49% |      107254      2.50%     74.99% |      107237      2.50%     77.49% |      107047      2.50%     79.98% |      106970      2.49%     82.47% |      107586      2.51%     84.98% |      107227      2.50%     87.48% |      107344      2.50%     89.98% |      107213      2.50%     92.48% |      107514      2.51%     94.99% |      107570      2.51%     97.50% |      107454      2.50%    100.00% (Unspecified)
system.ruby.L1Cache_Controller.Request::total      4290168                       (Unspecified)
system.ruby.L1Cache_Controller.Response  |      107356      2.50%      2.50% |      106792      2.49%      4.99% |      107648      2.51%      7.50% |      107215      2.50%     10.00% |      107079      2.50%     12.50% |      107940      2.52%     15.01% |      107392      2.50%     17.51% |      107407      2.50%     20.02% |      107539      2.51%     22.53% |      106887      2.49%     25.02% |      107150      2.50%     27.51% |      107056      2.50%     30.01% |      107386      2.50%     32.51% |      107601      2.51%     35.02% |      107216      2.50%     37.52% |      107463      2.50%     40.02% |      106958      2.49%     42.52% |      107513      2.51%     45.02% |      107698      2.51%     47.53% |      107509      2.51%     50.04% |      107296      2.50%     52.54% |      106690      2.49%     55.03% |      106792      2.49%     57.52% |      107191      2.50%     60.02% |      107189      2.50%     62.51% |      106995      2.49%     65.01% |      107147      2.50%     67.51% |      107032      2.49%     70.00% |      107424      2.50%     72.50% |      107866      2.51%     75.02% |      107129      2.50%     77.52% |      107170      2.50%     80.01% |      106978      2.49%     82.51% |      107704      2.51%     85.02% |      106822      2.49%     87.51% |      107467      2.50%     90.01% |      107111      2.50%     92.51% |      107062      2.50%     95.00% |      107172      2.50%     97.50% |      107135      2.50%    100.00% (Unspecified)
system.ruby.L1Cache_Controller.Response::total      4290177                       (Unspecified)
system.ruby.L1Cache_Controller.I.Request |      107262      2.50%      2.50% |      106914      2.49%      4.99% |      106944      2.49%      7.49% |      107227      2.50%      9.98% |      107201      2.50%     12.48% |      106513      2.48%     14.97% |      107664      2.51%     17.48% |      106883      2.49%     19.97% |      107068      2.50%     22.46% |      107838      2.51%     24.98% |      107082      2.50%     27.47% |      107283      2.50%     29.97% |      107145      2.50%     32.47% |      107377      2.50%     34.97% |      107023      2.49%     37.47% |      107736      2.51%     39.98% |      106539      2.48%     42.46% |      107147      2.50%     44.96% |      107307      2.50%     47.46% |      107250      2.50%     49.96% |      107186      2.50%     52.46% |      107993      2.52%     54.98% |      107425      2.50%     57.48% |      107454      2.50%     59.99% |      107338      2.50%     62.49% |      107296      2.50%     64.99% |      107310      2.50%     67.49% |      107526      2.51%     70.00% |      106821      2.49%     72.49% |      107254      2.50%     74.99% |      107237      2.50%     77.49% |      107047      2.50%     79.98% |      106970      2.49%     82.47% |      107586      2.51%     84.98% |      107227      2.50%     87.48% |      107344      2.50%     89.98% |      107213      2.50%     92.48% |      107514      2.51%     94.99% |      107570      2.51%     97.50% |      107454      2.50%    100.00% (Unspecified)
system.ruby.L1Cache_Controller.I.Request::total      4290168                       (Unspecified)
system.ruby.L1Cache_Controller.I.Response |      107356      2.50%      2.50% |      106792      2.49%      4.99% |      107648      2.51%      7.50% |      107215      2.50%     10.00% |      107079      2.50%     12.50% |      107940      2.52%     15.01% |      107392      2.50%     17.51% |      107407      2.50%     20.02% |      107539      2.51%     22.53% |      106887      2.49%     25.02% |      107150      2.50%     27.51% |      107056      2.50%     30.01% |      107386      2.50%     32.51% |      107601      2.51%     35.02% |      107216      2.50%     37.52% |      107463      2.50%     40.02% |      106958      2.49%     42.52% |      107513      2.51%     45.02% |      107698      2.51%     47.53% |      107509      2.51%     50.04% |      107296      2.50%     52.54% |      106690      2.49%     55.03% |      106792      2.49%     57.52% |      107191      2.50%     60.02% |      107189      2.50%     62.51% |      106995      2.49%     65.01% |      107147      2.50%     67.51% |      107032      2.49%     70.00% |      107424      2.50%     72.50% |      107866      2.51%     75.02% |      107129      2.50%     77.52% |      107170      2.50%     80.01% |      106978      2.49%     82.51% |      107704      2.51%     85.02% |      106822      2.49%     87.51% |      107467      2.50%     90.01% |      107111      2.50%     92.51% |      107062      2.50%     95.00% |      107172      2.50%     97.50% |      107135      2.50%    100.00% (Unspecified)
system.ruby.L1Cache_Controller.I.Response::total      4290177                       (Unspecified)
system.ruby.RequestType.LD.latency_hist_seqr::bucket_size            1                       (Unspecified)
system.ruby.RequestType.LD.latency_hist_seqr::max_bucket            9                       (Unspecified)
system.ruby.RequestType.LD.latency_hist_seqr::samples      4290168                       (Unspecified)
system.ruby.RequestType.LD.latency_hist_seqr::mean            1                       (Unspecified)
system.ruby.RequestType.LD.latency_hist_seqr::gmean            1                       (Unspecified)
system.ruby.RequestType.LD.latency_hist_seqr |           0      0.00%      0.00% |     4290168    100.00%    100.00% |           0      0.00%    100.00% |           0      0.00%    100.00% |           0      0.00%    100.00% |           0      0.00%    100.00% |           0      0.00%    100.00% |           0      0.00%    100.00% |           0      0.00%    100.00% |           0      0.00%    100.00% (Unspecified)
system.ruby.RequestType.LD.latency_hist_seqr::total      4290168                       (Unspecified)
system.ruby.RequestType.LD.hit_latency_hist_seqr::bucket_size            1                       (Unspecified)
system.ruby.RequestType.LD.hit_latency_hist_seqr::max_bucket            9                       (Unspecified)
system.ruby.RequestType.LD.hit_latency_hist_seqr::samples      4290168                       (Unspecified)
system.ruby.RequestType.LD.hit_latency_hist_seqr::mean            1                       (Unspecified)
system.ruby.RequestType.LD.hit_latency_hist_seqr::gmean            1                       (Unspecified)
system.ruby.RequestType.LD.hit_latency_hist_seqr |           0      0.00%      0.00% |     4290168    100.00%    100.00% |           0      0.00%    100.00% |           0      0.00%    100.00% |           0      0.00%    100.00% |           0      0.00%    100.00% |           0      0.00%    100.00% |           0      0.00%    100.00% |           0      0.00%    100.00% |           0      0.00%    100.00% (Unspecified)
system.ruby.RequestType.LD.hit_latency_hist_seqr::total      4290168                       (Unspecified)
system.ruby.RequestType.ST.latency_hist_seqr::bucket_size            1                       (Unspecified)
system.ruby.RequestType.ST.latency_hist_seqr::max_bucket            9                       (Unspecified)
system.ruby.RequestType.ST.latency_hist_seqr::samples      4290177                       (Unspecified)
system.ruby.RequestType.ST.latency_hist_seqr::mean            1                       (Unspecified)
system.ruby.RequestType.ST.latency_hist_seqr::gmean            1                       (Unspecified)
system.ruby.RequestType.ST.latency_hist_seqr |           0      0.00%      0.00% |     4290177    100.00%    100.00% |           0      0.00%    100.00% |           0      0.00%    100.00% |           0      0.00%    100.00% |           0      0.00%    100.00% |           0      0.00%    100.00% |           0      0.00%    100.00% |           0      0.00%    100.00% |           0      0.00%    100.00% (Unspecified)
system.ruby.RequestType.ST.latency_hist_seqr::total      4290177                       (Unspecified)
system.ruby.RequestType.ST.hit_latency_hist_seqr::bucket_size            1                       (Unspecified)
system.ruby.RequestType.ST.hit_latency_hist_seqr::max_bucket            9                       (Unspecified)
system.ruby.RequestType.ST.hit_latency_hist_seqr::samples      4290177                       (Unspecified)
system.ruby.RequestType.ST.hit_latency_hist_seqr::mean            1                       (Unspecified)
system.ruby.RequestType.ST.hit_latency_hist_seqr::gmean            1                       (Unspecified)
system.ruby.RequestType.ST.hit_latency_hist_seqr |           0      0.00%      0.00% |     4290177    100.00%    100.00% |           0      0.00%    100.00% |           0      0.00%    100.00% |           0      0.00%    100.00% |           0      0.00%    100.00% |           0      0.00%    100.00% |           0      0.00%    100.00% |           0      0.00%    100.00% |           0      0.00%    100.00% (Unspecified)
system.ruby.RequestType.ST.hit_latency_hist_seqr::total      4290177                       (Unspecified)
system.ruby.clk_domain.clock                      250                       # Clock period in ticks (Tick)
system.ruby.dir_cntrl0.power_state.pwrStateResidencyTicks::UNDEFINED   2147483750                       # Cumulative time (in ticks) in various power states (Tick)
system.ruby.dir_cntrl0.requestToDir.m_msg_count        26737                       # Number of messages passed the buffer (Count)
system.ruby.dir_cntrl0.requestToDir.m_buf_msgs     0.003113                       # Average number of messages in buffer ((Count/Tick))
system.ruby.dir_cntrl0.responseToDir.m_msg_count        26780                       # Number of messages passed the buffer (Count)
system.ruby.dir_cntrl0.responseToDir.m_buf_msgs     0.003118                       # Average number of messages in buffer ((Count/Tick))
system.ruby.dir_cntrl1.power_state.pwrStateResidencyTicks::UNDEFINED   2147483750                       # Cumulative time (in ticks) in various power states (Tick)
system.ruby.dir_cntrl1.requestToDir.m_msg_count        26729                       # Number of messages passed the buffer (Count)
system.ruby.dir_cntrl1.requestToDir.m_buf_msgs     0.003112                       # Average number of messages in buffer ((Count/Tick))
system.ruby.dir_cntrl1.responseToDir.m_msg_count        26185                       # Number of messages passed the buffer (Count)
system.ruby.dir_cntrl1.responseToDir.m_buf_msgs     0.003048                       # Average number of messages in buffer ((Count/Tick))
system.ruby.dir_cntrl10.power_state.pwrStateResidencyTicks::UNDEFINED   2147483750                       # Cumulative time (in ticks) in various power states (Tick)
system.ruby.dir_cntrl10.requestToDir.m_msg_count        26547                       # Number of messages passed the buffer (Count)
system.ruby.dir_cntrl10.requestToDir.m_buf_msgs     0.003090                       # Average number of messages in buffer ((Count/Tick))
system.ruby.dir_cntrl10.responseToDir.m_msg_count        27014                       # Number of messages passed the buffer (Count)
system.ruby.dir_cntrl10.responseToDir.m_buf_msgs     0.003145                       # Average number of messages in buffer ((Count/Tick))
system.ruby.dir_cntrl100.power_state.pwrStateResidencyTicks::UNDEFINED   2147483750                       # Cumulative time (in ticks) in various power states (Tick)
system.ruby.dir_cntrl100.requestToDir.m_msg_count        26866                       # Number of messages passed the buffer (Count)
system.ruby.dir_cntrl100.requestToDir.m_buf_msgs     0.003128                       # Average number of messages in buffer ((Count/Tick))
system.ruby.dir_cntrl100.responseToDir.m_msg_count        26838                       # Number of messages passed the buffer (Count)
system.ruby.dir_cntrl100.responseToDir.m_buf_msgs     0.003124                       # Average number of messages in buffer ((Count/Tick))
system.ruby.dir_cntrl101.power_state.pwrStateResidencyTicks::UNDEFINED   2147483750                       # Cumulative time (in ticks) in various power states (Tick)
system.ruby.dir_cntrl101.requestToDir.m_msg_count        26709                       # Number of messages passed the buffer (Count)
system.ruby.dir_cntrl101.requestToDir.m_buf_msgs     0.003109                       # Average number of messages in buffer ((Count/Tick))
system.ruby.dir_cntrl101.responseToDir.m_msg_count        26916                       # Number of messages passed the buffer (Count)
system.ruby.dir_cntrl101.responseToDir.m_buf_msgs     0.003133                       # Average number of messages in buffer ((Count/Tick))
system.ruby.dir_cntrl102.power_state.pwrStateResidencyTicks::UNDEFINED   2147483750                       # Cumulative time (in ticks) in various power states (Tick)
system.ruby.dir_cntrl102.requestToDir.m_msg_count        27000                       # Number of messages passed the buffer (Count)
system.ruby.dir_cntrl102.requestToDir.m_buf_msgs     0.003143                       # Average number of messages in buffer ((Count/Tick))
system.ruby.dir_cntrl102.responseToDir.m_msg_count        26911                       # Number of messages passed the buffer (Count)
system.ruby.dir_cntrl102.responseToDir.m_buf_msgs     0.003133                       # Average number of messages in buffer ((Count/Tick))
system.ruby.dir_cntrl103.power_state.pwrStateResidencyTicks::UNDEFINED   2147483750                       # Cumulative time (in ticks) in various power states (Tick)
system.ruby.dir_cntrl103.requestToDir.m_msg_count        26961                       # Number of messages passed the buffer (Count)
system.ruby.dir_cntrl103.requestToDir.m_buf_msgs     0.003139                       # Average number of messages in buffer ((Count/Tick))
system.ruby.dir_cntrl103.responseToDir.m_msg_count        26855                       # Number of messages passed the buffer (Count)
system.ruby.dir_cntrl103.responseToDir.m_buf_msgs     0.003126                       # Average number of messages in buffer ((Count/Tick))
system.ruby.dir_cntrl104.power_state.pwrStateResidencyTicks::UNDEFINED   2147483750                       # Cumulative time (in ticks) in various power states (Tick)
system.ruby.dir_cntrl104.requestToDir.m_msg_count        26845                       # Number of messages passed the buffer (Count)
system.ruby.dir_cntrl104.requestToDir.m_buf_msgs     0.003125                       # Average number of messages in buffer ((Count/Tick))
system.ruby.dir_cntrl104.responseToDir.m_msg_count        26671                       # Number of messages passed the buffer (Count)
system.ruby.dir_cntrl104.responseToDir.m_buf_msgs     0.003105                       # Average number of messages in buffer ((Count/Tick))
system.ruby.dir_cntrl105.power_state.pwrStateResidencyTicks::UNDEFINED   2147483750                       # Cumulative time (in ticks) in various power states (Tick)
system.ruby.dir_cntrl105.requestToDir.m_msg_count        26939                       # Number of messages passed the buffer (Count)
system.ruby.dir_cntrl105.requestToDir.m_buf_msgs     0.003136                       # Average number of messages in buffer ((Count/Tick))
system.ruby.dir_cntrl105.responseToDir.m_msg_count        27087                       # Number of messages passed the buffer (Count)
system.ruby.dir_cntrl105.responseToDir.m_buf_msgs     0.003153                       # Average number of messages in buffer ((Count/Tick))
system.ruby.dir_cntrl106.power_state.pwrStateResidencyTicks::UNDEFINED   2147483750                       # Cumulative time (in ticks) in various power states (Tick)
system.ruby.dir_cntrl106.requestToDir.m_msg_count        26812                       # Number of messages passed the buffer (Count)
system.ruby.dir_cntrl106.requestToDir.m_buf_msgs     0.003121                       # Average number of messages in buffer ((Count/Tick))
system.ruby.dir_cntrl106.responseToDir.m_msg_count        26959                       # Number of messages passed the buffer (Count)
system.ruby.dir_cntrl106.responseToDir.m_buf_msgs     0.003138                       # Average number of messages in buffer ((Count/Tick))
system.ruby.dir_cntrl107.power_state.pwrStateResidencyTicks::UNDEFINED   2147483750                       # Cumulative time (in ticks) in various power states (Tick)
system.ruby.dir_cntrl107.requestToDir.m_msg_count        26447                       # Number of messages passed the buffer (Count)
system.ruby.dir_cntrl107.requestToDir.m_buf_msgs     0.003079                       # Average number of messages in buffer ((Count/Tick))
system.ruby.dir_cntrl107.responseToDir.m_msg_count        26696                       # Number of messages passed the buffer (Count)
system.ruby.dir_cntrl107.responseToDir.m_buf_msgs     0.003108                       # Average number of messages in buffer ((Count/Tick))
system.ruby.dir_cntrl108.power_state.pwrStateResidencyTicks::UNDEFINED   2147483750                       # Cumulative time (in ticks) in various power states (Tick)
system.ruby.dir_cntrl108.requestToDir.m_msg_count        26646                       # Number of messages passed the buffer (Count)
system.ruby.dir_cntrl108.requestToDir.m_buf_msgs     0.003102                       # Average number of messages in buffer ((Count/Tick))
system.ruby.dir_cntrl108.responseToDir.m_msg_count        26868                       # Number of messages passed the buffer (Count)
system.ruby.dir_cntrl108.responseToDir.m_buf_msgs     0.003128                       # Average number of messages in buffer ((Count/Tick))
system.ruby.dir_cntrl109.power_state.pwrStateResidencyTicks::UNDEFINED   2147483750                       # Cumulative time (in ticks) in various power states (Tick)
system.ruby.dir_cntrl109.requestToDir.m_msg_count        26813                       # Number of messages passed the buffer (Count)
system.ruby.dir_cntrl109.requestToDir.m_buf_msgs     0.003121                       # Average number of messages in buffer ((Count/Tick))
system.ruby.dir_cntrl109.responseToDir.m_msg_count        26697                       # Number of messages passed the buffer (Count)
system.ruby.dir_cntrl109.responseToDir.m_buf_msgs     0.003108                       # Average number of messages in buffer ((Count/Tick))
system.ruby.dir_cntrl11.power_state.pwrStateResidencyTicks::UNDEFINED   2147483750                       # Cumulative time (in ticks) in various power states (Tick)
system.ruby.dir_cntrl11.requestToDir.m_msg_count        26685                       # Number of messages passed the buffer (Count)
system.ruby.dir_cntrl11.requestToDir.m_buf_msgs     0.003107                       # Average number of messages in buffer ((Count/Tick))
system.ruby.dir_cntrl11.responseToDir.m_msg_count        26992                       # Number of messages passed the buffer (Count)
[...]
system.ruby.network.sankey.vcvn13.vcvn5             0                       (Unspecified)
system.ruby.network.sankey.vcvn13.vcvn6             0                       (Unspecified)
system.ruby.network.sankey.vcvn13.vcvn7             0                       (Unspecified)
system.ruby.network.sankey.vcvn13.vcvn8             0                       (Unspecified)
system.ruby.network.sankey.vcvn13.vcvn9             0                       (Unspecified)
system.ruby.network.sankey.vcvn14.vcvn0             0                       (Unspecified)
system.ruby.network.sankey.vcvn14.vcvn1             0                       (Unspecified)
system.ruby.network.sankey.vcvn14.vcvn10            0                       (Unspecified)
system.ruby.network.sankey.vcvn14.vcvn11            0                       (Unspecified)
system.ruby.network.sankey.vcvn14.vcvn12            0                       (Unspecified)
system.ruby.network.sankey.vcvn14.vcvn13            0                       (Unspecified)
system.ruby.network.sankey.vcvn14.vcvn14      5550030                       (Unspecified)
system.ruby.network.sankey.vcvn14.vcvn15            0                       (Unspecified)
system.ruby.network.sankey.vcvn14.vcvn16            0                       (Unspecified)
system.ruby.network.sankey.vcvn14.vcvn17            0                       (Unspecified)
system.ruby.network.sankey.vcvn14.vcvn2             0                       (Unspecified)
system.ruby.network.sankey.vcvn14.vcvn3             0                       (Unspecified)
system.ruby.network.sankey.vcvn14.vcvn4             0                       (Unspecified)
system.ruby.network.sankey.vcvn14.vcvn5             0                       (Unspecified)
system.ruby.network.sankey.vcvn14.vcvn6             0                       (Unspecified)
system.ruby.network.sankey.vcvn14.vcvn7             0                       (Unspecified)
system.ruby.network.sankey.vcvn14.vcvn8             0                       (Unspecified)
system.ruby.network.sankey.vcvn14.vcvn9             0                       (Unspecified)
system.ruby.network.sankey.vcvn15.vcvn0             0                       (Unspecified)
system.ruby.network.sankey.vcvn15.vcvn1             0                       (Unspecified)
system.ruby.network.sankey.vcvn15.vcvn10            0                       (Unspecified)
system.ruby.network.sankey.vcvn15.vcvn11            0                       (Unspecified)
system.ruby.network.sankey.vcvn15.vcvn12            0                       (Unspecified)
system.ruby.network.sankey.vcvn15.vcvn13            0                       (Unspecified)
system.ruby.network.sankey.vcvn15.vcvn14            0                       (Unspecified)
system.ruby.network.sankey.vcvn15.vcvn15      3029393                       (Unspecified)
system.ruby.network.sankey.vcvn15.vcvn16            0                       (Unspecified)
system.ruby.network.sankey.vcvn15.vcvn17            0                       (Unspecified)
system.ruby.network.sankey.vcvn15.vcvn2             0                       (Unspecified)
system.ruby.network.sankey.vcvn15.vcvn3             0                       (Unspecified)
system.ruby.network.sankey.vcvn15.vcvn4             0                       (Unspecified)
system.ruby.network.sankey.vcvn15.vcvn5             0                       (Unspecified)
system.ruby.network.sankey.vcvn15.vcvn6             0                       (Unspecified)
system.ruby.network.sankey.vcvn15.vcvn7             0                       (Unspecified)
system.ruby.network.sankey.vcvn15.vcvn8             0                       (Unspecified)
system.ruby.network.sankey.vcvn15.vcvn9             0                       (Unspecified)
system.ruby.network.sankey.vcvn16.vcvn0             0                       (Unspecified)
system.ruby.network.sankey.vcvn16.vcvn1             0                       (Unspecified)
system.ruby.network.sankey.vcvn16.vcvn10            0                       (Unspecified)
system.ruby.network.sankey.vcvn16.vcvn11            0                       (Unspecified)
system.ruby.network.sankey.vcvn16.vcvn12            0                       (Unspecified)
system.ruby.network.sankey.vcvn16.vcvn13            0                       (Unspecified)
system.ruby.network.sankey.vcvn16.vcvn14            0                       (Unspecified)
system.ruby.network.sankey.vcvn16.vcvn15            0                       (Unspecified)
system.ruby.network.sankey.vcvn16.vcvn16      3243036                       (Unspecified)
system.ruby.network.sankey.vcvn16.vcvn17            0                       (Unspecified)
system.ruby.network.sankey.vcvn16.vcvn2             0                       (Unspecified)
system.ruby.network.sankey.vcvn16.vcvn3             0                       (Unspecified)
system.ruby.network.sankey.vcvn16.vcvn4             0                       (Unspecified)
system.ruby.network.sankey.vcvn16.vcvn5             0                       (Unspecified)
system.ruby.network.sankey.vcvn16.vcvn6             0                       (Unspecified)
system.ruby.network.sankey.vcvn16.vcvn7             0                       (Unspecified)
system.ruby.network.sankey.vcvn16.vcvn8             0                       (Unspecified)
system.ruby.network.sankey.vcvn16.vcvn9             0                       (Unspecified)
system.ruby.network.sankey.vcvn17.vcvn0             0                       (Unspecified)
system.ruby.network.sankey.vcvn17.vcvn1             0                       (Unspecified)
system.ruby.network.sankey.vcvn17.vcvn10            0                       (Unspecified)
system.ruby.network.sankey.vcvn17.vcvn11            0                       (Unspecified)
system.ruby.network.sankey.vcvn17.vcvn12            0                       (Unspecified)
system.ruby.network.sankey.vcvn17.vcvn13            0                       (Unspecified)
system.ruby.network.sankey.vcvn17.vcvn14            0                       (Unspecified)
system.ruby.network.sankey.vcvn17.vcvn15            0                       (Unspecified)
system.ruby.network.sankey.vcvn17.vcvn16            0                       (Unspecified)
system.ruby.network.sankey.vcvn17.vcvn17      2628530                       (Unspecified)
system.ruby.network.sankey.vcvn17.vcvn2             0                       (Unspecified)
system.ruby.network.sankey.vcvn17.vcvn3             0                       (Unspecified)
system.ruby.network.sankey.vcvn17.vcvn4             0                       (Unspecified)
system.ruby.network.sankey.vcvn17.vcvn5             0                       (Unspecified)
system.ruby.network.sankey.vcvn17.vcvn6             0                       (Unspecified)
system.ruby.network.sankey.vcvn17.vcvn7             0                       (Unspecified)
system.ruby.network.sankey.vcvn17.vcvn8             0                       (Unspecified)
system.ruby.network.sankey.vcvn17.vcvn9             0                       (Unspecified)
system.ruby.network.sankey.vcvn2.vcvn0              0                       (Unspecified)
system.ruby.network.sankey.vcvn2.vcvn1              0                       (Unspecified)
system.ruby.network.sankey.vcvn2.vcvn10             0                       (Unspecified)
system.ruby.network.sankey.vcvn2.vcvn11             0                       (Unspecified)
system.ruby.network.sankey.vcvn2.vcvn12             0                       (Unspecified)
system.ruby.network.sankey.vcvn2.vcvn13             0                       (Unspecified)
system.ruby.network.sankey.vcvn2.vcvn14             0                       (Unspecified)
system.ruby.network.sankey.vcvn2.vcvn15             0                       (Unspecified)
system.ruby.network.sankey.vcvn2.vcvn16             0                       (Unspecified)
system.ruby.network.sankey.vcvn2.vcvn17             0                       (Unspecified)
system.ruby.network.sankey.vcvn2.vcvn2        1177422                       (Unspecified)
system.ruby.network.sankey.vcvn2.vcvn3              0                       (Unspecified)
system.ruby.network.sankey.vcvn2.vcvn4              0                       (Unspecified)
system.ruby.network.sankey.vcvn2.vcvn5              0                       (Unspecified)
system.ruby.network.sankey.vcvn2.vcvn6              0                       (Unspecified)
system.ruby.network.sankey.vcvn2.vcvn7              0                       (Unspecified)
system.ruby.network.sankey.vcvn2.vcvn8              0                       (Unspecified)
system.ruby.network.sankey.vcvn2.vcvn9              0                       (Unspecified)
system.ruby.network.sankey.vcvn3.vcvn0              0                       (Unspecified)
system.ruby.network.sankey.vcvn3.vcvn1              0                       (Unspecified)
system.ruby.network.sankey.vcvn3.vcvn10             0                       (Unspecified)
system.ruby.network.sankey.vcvn3.vcvn11             0                       (Unspecified)
system.ruby.network.sankey.vcvn3.vcvn12             0                       (Unspecified)
system.ruby.network.sankey.vcvn3.vcvn13             0                       (Unspecified)
system.ruby.network.sankey.vcvn3.vcvn14             0                       (Unspecified)
system.ruby.network.sankey.vcvn3.vcvn15             0                       (Unspecified)
system.ruby.network.sankey.vcvn3.vcvn16             0                       (Unspecified)
system.ruby.network.sankey.vcvn3.vcvn17             0                       (Unspecified)
system.ruby.network.sankey.vcvn3.vcvn2              0                       (Unspecified)
system.ruby.network.sankey.vcvn3.vcvn3         626359                       (Unspecified)
system.ruby.network.sankey.vcvn3.vcvn4              0                       (Unspecified)
system.ruby.network.sankey.vcvn3.vcvn5              0                       (Unspecified)
system.ruby.network.sankey.vcvn3.vcvn6              0                       (Unspecified)
system.ruby.network.sankey.vcvn3.vcvn7              0                       (Unspecified)
system.ruby.network.sankey.vcvn3.vcvn8              0                       (Unspecified)
system.ruby.network.sankey.vcvn3.vcvn9              0                       (Unspecified)
system.ruby.network.sankey.vcvn4.vcvn0              0                       (Unspecified)
system.ruby.network.sankey.vcvn4.vcvn1              0                       (Unspecified)
system.ruby.network.sankey.vcvn4.vcvn10             0                       (Unspecified)
system.ruby.network.sankey.vcvn4.vcvn11             0                       (Unspecified)
system.ruby.network.sankey.vcvn4.vcvn12             0                       (Unspecified)
system.ruby.network.sankey.vcvn4.vcvn13             0                       (Unspecified)
system.ruby.network.sankey.vcvn4.vcvn14             0                       (Unspecified)
system.ruby.network.sankey.vcvn4.vcvn15             0                       (Unspecified)
system.ruby.network.sankey.vcvn4.vcvn16             0                       (Unspecified)
system.ruby.network.sankey.vcvn4.vcvn17             0                       (Unspecified)
system.ruby.network.sankey.vcvn4.vcvn2              0                       (Unspecified)
system.ruby.network.sankey.vcvn4.vcvn3              0                       (Unspecified)
system.ruby.network.sankey.vcvn4.vcvn4         676808                       (Unspecified)
system.ruby.network.sankey.vcvn4.vcvn5              0                       (Unspecified)
system.ruby.network.sankey.vcvn4.vcvn6              0                       (Unspecified)
system.ruby.network.sankey.vcvn4.vcvn7              0                       (Unspecified)
system.ruby.network.sankey.vcvn4.vcvn8              0                       (Unspecified)
system.ruby.network.sankey.vcvn4.vcvn9              0                       (Unspecified)
system.ruby.network.sankey.vcvn5.vcvn0              0                       (Unspecified)
system.ruby.network.sankey.vcvn5.vcvn1              0                       (Unspecified)
system.ruby.network.sankey.vcvn5.vcvn10             0                       (Unspecified)
system.ruby.network.sankey.vcvn5.vcvn11             0                       (Unspecified)
system.ruby.network.sankey.vcvn5.vcvn12             0                       (Unspecified)
system.ruby.network.sankey.vcvn5.vcvn13             0                       (Unspecified)
system.ruby.network.sankey.vcvn5.vcvn14             0                       (Unspecified)
system.ruby.network.sankey.vcvn5.vcvn15             0                       (Unspecified)
system.ruby.network.sankey.vcvn5.vcvn16             0                       (Unspecified)
system.ruby.network.sankey.vcvn5.vcvn17             0                       (Unspecified)
system.ruby.network.sankey.vcvn5.vcvn2              0                       (Unspecified)
system.ruby.network.sankey.vcvn5.vcvn3              0                       (Unspecified)
system.ruby.network.sankey.vcvn5.vcvn4              0                       (Unspecified)
system.ruby.network.sankey.vcvn5.vcvn5         528065                       (Unspecified)
system.ruby.network.sankey.vcvn5.vcvn6              0                       (Unspecified)
system.ruby.network.sankey.vcvn5.vcvn7              0                       (Unspecified)
system.ruby.network.sankey.vcvn5.vcvn8              0                       (Unspecified)
system.ruby.network.sankey.vcvn5.vcvn9              0                       (Unspecified)
system.ruby.network.sankey.vcvn6.vcvn0              0                       (Unspecified)
system.ruby.network.sankey.vcvn6.vcvn1              0                       (Unspecified)
system.ruby.network.sankey.vcvn6.vcvn10             0                       (Unspecified)
system.ruby.network.sankey.vcvn6.vcvn11             0                       (Unspecified)
system.ruby.network.sankey.vcvn6.vcvn12             0                       (Unspecified)
system.ruby.network.sankey.vcvn6.vcvn13             0                       (Unspecified)
system.ruby.network.sankey.vcvn6.vcvn14             0                       (Unspecified)
system.ruby.network.sankey.vcvn6.vcvn15             0                       (Unspecified)
system.ruby.network.sankey.vcvn6.vcvn16             0                       (Unspecified)
system.ruby.network.sankey.vcvn6.vcvn17             0                       (Unspecified)
system.ruby.network.sankey.vcvn6.vcvn2              0                       (Unspecified)
system.ruby.network.sankey.vcvn6.vcvn3              0                       (Unspecified)
system.ruby.network.sankey.vcvn6.vcvn4              0                       (Unspecified)
system.ruby.network.sankey.vcvn6.vcvn5              0                       (Unspecified)
system.ruby.network.sankey.vcvn6.vcvn6              0                       (Unspecified)
system.ruby.network.sankey.vcvn6.vcvn7              0                       (Unspecified)
system.ruby.network.sankey.vcvn6.vcvn8              0                       (Unspecified)
system.ruby.network.sankey.vcvn6.vcvn9              0                       (Unspecified)
system.ruby.network.sankey.vcvn7.vcvn0              0                       (Unspecified)
system.ruby.network.sankey.vcvn7.vcvn1              0                       (Unspecified)
system.ruby.network.sankey.vcvn7.vcvn10             0                       (Unspecified)
system.ruby.network.sankey.vcvn7.vcvn11             0                       (Unspecified)
system.ruby.network.sankey.vcvn7.vcvn12             0                       (Unspecified)
system.ruby.network.sankey.vcvn7.vcvn13             0                       (Unspecified)
system.ruby.network.sankey.vcvn7.vcvn14             0                       (Unspecified)
system.ruby.network.sankey.vcvn7.vcvn15             0                       (Unspecified)
system.ruby.network.sankey.vcvn7.vcvn16             0                       (Unspecified)
system.ruby.network.sankey.vcvn7.vcvn17             0                       (Unspecified)
system.ruby.network.sankey.vcvn7.vcvn2              0                       (Unspecified)
system.ruby.network.sankey.vcvn7.vcvn3              0                       (Unspecified)
system.ruby.network.sankey.vcvn7.vcvn4              0                       (Unspecified)
system.ruby.network.sankey.vcvn7.vcvn5              0                       (Unspecified)
system.ruby.network.sankey.vcvn7.vcvn6              0                       (Unspecified)
system.ruby.network.sankey.vcvn7.vcvn7              0                       (Unspecified)
system.ruby.network.sankey.vcvn7.vcvn8              0                       (Unspecified)
system.ruby.network.sankey.vcvn7.vcvn9              0                       (Unspecified)
system.ruby.network.sankey.vcvn8.vcvn0              0                       (Unspecified)
system.ruby.network.sankey.vcvn8.vcvn1              0                       (Unspecified)
system.ruby.network.sankey.vcvn8.vcvn10             0                       (Unspecified)
system.ruby.network.sankey.vcvn8.vcvn11             0                       (Unspecified)
system.ruby.network.sankey.vcvn8.vcvn12             0                       (Unspecified)
system.ruby.network.sankey.vcvn8.vcvn13             0                       (Unspecified)
system.ruby.network.sankey.vcvn8.vcvn14             0                       (Unspecified)
system.ruby.network.sankey.vcvn8.vcvn15             0                       (Unspecified)
system.ruby.network.sankey.vcvn8.vcvn16             0                       (Unspecified)
system.ruby.network.sankey.vcvn8.vcvn17             0                       (Unspecified)
system.ruby.network.sankey.vcvn8.vcvn2              0                       (Unspecified)
system.ruby.network.sankey.vcvn8.vcvn3              0                       (Unspecified)
system.ruby.network.sankey.vcvn8.vcvn4              0                       (Unspecified)
system.ruby.network.sankey.vcvn8.vcvn5              0                       (Unspecified)
system.ruby.network.sankey.vcvn8.vcvn6              0                       (Unspecified)
system.ruby.network.sankey.vcvn8.vcvn7              0                       (Unspecified)
system.ruby.network.sankey.vcvn8.vcvn8              0                       (Unspecified)
system.ruby.network.sankey.vcvn8.vcvn9              0                       (Unspecified)
system.ruby.network.sankey.vcvn9.vcvn0              0                       (Unspecified)
system.ruby.network.sankey.vcvn9.vcvn1              0                       (Unspecified)
system.ruby.network.sankey.vcvn9.vcvn10             0                       (Unspecified)
system.ruby.network.sankey.vcvn9.vcvn11             0                       (Unspecified)
system.ruby.network.sankey.vcvn9.vcvn12             0                       (Unspecified)
system.ruby.network.sankey.vcvn9.vcvn13             0                       (Unspecified)
system.ruby.network.sankey.vcvn9.vcvn14             0                       (Unspecified)
system.ruby.network.sankey.vcvn9.vcvn15             0                       (Unspecified)
system.ruby.network.sankey.vcvn9.vcvn16             0                       (Unspecified)
system.ruby.network.sankey.vcvn9.vcvn17             0                       (Unspecified)
system.ruby.network.sankey.vcvn9.vcvn2              0                       (Unspecified)
system.ruby.network.sankey.vcvn9.vcvn3              0                       (Unspecified)
system.ruby.network.sankey.vcvn9.vcvn4              0                       (Unspecified)
system.ruby.network.sankey.vcvn9.vcvn5              0                       (Unspecified)
system.ruby.network.sankey.vcvn9.vcvn6              0                       (Unspecified)
system.ruby.network.sankey.vcvn9.vcvn7              0                       (Unspecified)
system.ruby.network.sankey.vcvn9.vcvn8              0                       (Unspecified)
system.ruby.network.sankey.vcvn9.vcvn9              0                       (Unspecified)

---------- End Simulation Statistics   ----------
