gem5 Simulator System.  https://www.gem5.org
gem5 is copyrighted software; use the --copyright option for details.

gem5 version 22.0.0.2
gem5 compiled Jun 17 2023 14:31:12
gem5 started Nov 18 2023 15:53:44
gem5 executing on mnemosyne24.ecn.purdue.edu, pid 16639
command line: ./build/Garnet_standalone/gem5.fast -d ./synth_outputs/simple/2b/mixed/nndbt_none_2_6_40cpus_4xdirs_4.0GHz/mem/kite_medium/0_165/ configs/auto_top/auto_top_synth.py --topology EscapeVirtualNetworks --noi_routers 20 --sim-cycles 2147483647 --injectionrate 0.165 --noc_clk 4.0GHz --sys-clock 4.0GHz --ruby-clock 4.0GHz --noi_clk 3.0GHz --router_map_file configs/topologies/paper_solutions/kite_medium.map --flat_vn_map_file configs/topologies/vn_maps_ndbt/kite_medium_nndbt_none_2vns.vn --flat_nr_map_file configs/topologies/nr_list_ndbt/kite_medium_nndbt.nrl --ruby --mem_or_coh mem --mem-size 320000000 --num-dirs 64 --num-cpus 40 --network garnet --mem-type SimpleMemory --routing-algorithm 2 --use_escape_vns --synth_traffic --vcs-per-vnet 6 --evn_deadlock_partition 4 --evn_n_deadlock_free 1 --evn_min_n_deadlock_free 2

info: Standard input is not a terminal, disabling listeners.
ingesting configs/topologies/vn_maps_ndbt/kite_medium_nndbt_none_2vns.vn
cpus(40)=[<m5.objects.GarnetSyntheticTraffic.GarnetSyntheticTraffic object at 0x7f62f0532048>, <m5.objects.GarnetSyntheticTraffic.GarnetSyntheticTraffic object at 0x7f62f0532e10>, <m5.objects.GarnetSyntheticTraffic.GarnetSyntheticTraffic object at 0x7f62f00ae128>, <m5.objects.GarnetSyntheticTraffic.GarnetSyntheticTraffic object at 0x7f62f00ae400>, <m5.objects.GarnetSyntheticTraffic.GarnetSyntheticTraffic object at 0x7f62f00ae6d8>, <m5.objects.GarnetSyntheticTraffic.GarnetSyntheticTraffic object at 0x7f62f00ae9b0>, <m5.objects.GarnetSyntheticTraffic.GarnetSyntheticTraffic object at 0x7f62f00aec88>, <m5.objects.GarnetSyntheticTraffic.GarnetSyntheticTraffic object at 0x7f62f00aef60>, <m5.objects.GarnetSyntheticTraffic.GarnetSyntheticTraffic object at 0x7f62f00b7278>, <m5.objects.GarnetSyntheticTraffic.GarnetSyntheticTraffic object at 0x7f62f00b7550>, <m5.objects.GarnetSyntheticTraffic.GarnetSyntheticTraffic object at 0x7f62f00b7828>, <m5.objects.GarnetSyntheticTraffic.GarnetSyntheticTraffic object at 0x7f62f00b7b00>, <m5.objects.GarnetSyntheticTraffic.GarnetSyntheticTraffic object at 0x7f62f0532860>, <m5.objects.GarnetSyntheticTraffic.GarnetSyntheticTraffic object at 0x7f62f0521eb8>, <m5.objects.GarnetSyntheticTraffic.GarnetSyntheticTraffic object at 0x7f62f052c6d8>, <m5.objects.GarnetSyntheticTraffic.GarnetSyntheticTraffic object at 0x7f62f052cd30>, <m5.objects.GarnetSyntheticTraffic.GarnetSyntheticTraffic object at 0x7f62f00b7d68>, <m5.objects.GarnetSyntheticTraffic.GarnetSyntheticTraffic object at 0x7f62f00c3080>, <m5.objects.GarnetSyntheticTraffic.GarnetSyntheticTraffic object at 0x7f62f00c3358>, <m5.objects.GarnetSyntheticTraffic.GarnetSyntheticTraffic object at 0x7f62f00c3630>, <m5.objects.GarnetSyntheticTraffic.GarnetSyntheticTraffic object at 0x7f62f00c3908>, <m5.objects.GarnetSyntheticTraffic.GarnetSyntheticTraffic object at 0x7f62f00c3be0>, <m5.objects.GarnetSyntheticTraffic.GarnetSyntheticTraffic object at 0x7f62f00c3eb8>, <m5.objects.GarnetSyntheticTraffic.GarnetSyntheticTraffic object at 0x7f62f00ca1d0>, <m5.objects.GarnetSyntheticTraffic.GarnetSyntheticTraffic object at 0x7f62f00ca4a8>, <m5.objects.GarnetSyntheticTraffic.GarnetSyntheticTraffic object at 0x7f62f00ca780>, <m5.objects.GarnetSyntheticTraffic.GarnetSyntheticTraffic object at 0x7f62f00caa58>, <m5.objects.GarnetSyntheticTraffic.GarnetSyntheticTraffic object at 0x7f62f00cad30>, <m5.objects.GarnetSyntheticTraffic.GarnetSyntheticTraffic object at 0x7f62f00cafd0>, <m5.objects.GarnetSyntheticTraffic.GarnetSyntheticTraffic object at 0x7f62f00d22e8>, <m5.objects.GarnetSyntheticTraffic.GarnetSyntheticTraffic object at 0x7f62f00d25c0>, <m5.objects.GarnetSyntheticTraffic.GarnetSyntheticTraffic object at 0x7f62f00d2898>, <m5.objects.GarnetSyntheticTraffic.GarnetSyntheticTraffic object at 0x7f62f00d2b70>, <m5.objects.GarnetSyntheticTraffic.GarnetSyntheticTraffic object at 0x7f62f00d2e48>, <m5.objects.GarnetSyntheticTraffic.GarnetSyntheticTraffic object at 0x7f62f00db160>, <m5.objects.GarnetSyntheticTraffic.GarnetSyntheticTraffic object at 0x7f62f00db438>, <m5.objects.GarnetSyntheticTraffic.GarnetSyntheticTraffic object at 0x7f62f00db710>, <m5.objects.GarnetSyntheticTraffic.GarnetSyntheticTraffic object at 0x7f62f00db9e8>, <m5.objects.GarnetSyntheticTraffic.GarnetSyntheticTraffic object at 0x7f62f00dbcc0>, <m5.objects.GarnetSyntheticTraffic.GarnetSyntheticTraffic object at 0x7f62f00dbf98>])
ingesting configs/topologies/nr_list_ndbt/kite_medium_nndbt.nrl
ingesting configs/topologies/vn_maps_ndbt/kite_medium_nndbt_none_2vns.vn
ext_cdc_required = True
