gem5 Simulator System.  https://www.gem5.org
gem5 is copyrighted software; use the --copyright option for details.

gem5 version 22.0.0.2
gem5 compiled Jun 17 2023 14:31:12
gem5 started Nov 18 2023 15:53:31
gem5 executing on mnemosyne24.ecn.purdue.edu, pid 16520
command line: ./build/Garnet_standalone/gem5.fast -d ./synth_outputs/simple/2b/mixed/nndbt_none_2_6_40cpus_4xdirs_4.0GHz/mem/lpbt_m_latop/0_165/ configs/auto_top/auto_top_synth.py --topology EscapeVirtualNetworks --noi_routers 20 --sim-cycles 2147483647 --injectionrate 0.165 --noc_clk 4.0GHz --sys-clock 4.0GHz --ruby-clock 4.0GHz --noi_clk 3.0GHz --router_map_file configs/topologies/paper_solutions/lpbt_m_latop.map --flat_vn_map_file configs/topologies/vn_maps_ndbt/lpbt_m_latop_nndbt_none_2vns.vn --flat_nr_map_file configs/topologies/nr_list_ndbt/lpbt_m_latop_nndbt.nrl --ruby --mem_or_coh mem --mem-size 320000000 --num-dirs 64 --num-cpus 40 --network garnet --mem-type SimpleMemory --routing-algorithm 2 --use_escape_vns --synth_traffic --vcs-per-vnet 6 --evn_deadlock_partition 4 --evn_n_deadlock_free 1 --evn_min_n_deadlock_free 2

info: Standard input is not a terminal, disabling listeners.
ingesting configs/topologies/vn_maps_ndbt/lpbt_m_latop_nndbt_none_2vns.vn
cpus(40)=[<m5.objects.GarnetSyntheticTraffic.GarnetSyntheticTraffic object at 0x7f6b29d78048>, <m5.objects.GarnetSyntheticTraffic.GarnetSyntheticTraffic object at 0x7f6b29d78e10>, <m5.objects.GarnetSyntheticTraffic.GarnetSyntheticTraffic object at 0x7f6b298f6128>, <m5.objects.GarnetSyntheticTraffic.GarnetSyntheticTraffic object at 0x7f6b298f6400>, <m5.objects.GarnetSyntheticTraffic.GarnetSyntheticTraffic object at 0x7f6b298f66d8>, <m5.objects.GarnetSyntheticTraffic.GarnetSyntheticTraffic object at 0x7f6b298f69b0>, <m5.objects.GarnetSyntheticTraffic.GarnetSyntheticTraffic object at 0x7f6b298f6c88>, <m5.objects.GarnetSyntheticTraffic.GarnetSyntheticTraffic object at 0x7f6b298f6f60>, <m5.objects.GarnetSyntheticTraffic.GarnetSyntheticTraffic object at 0x7f6b298ff278>, <m5.objects.GarnetSyntheticTraffic.GarnetSyntheticTraffic object at 0x7f6b298ff550>, <m5.objects.GarnetSyntheticTraffic.GarnetSyntheticTraffic object at 0x7f6b298ff828>, <m5.objects.GarnetSyntheticTraffic.GarnetSyntheticTraffic object at 0x7f6b298ffb00>, <m5.objects.GarnetSyntheticTraffic.GarnetSyntheticTraffic object at 0x7f6b29d78860>, <m5.objects.GarnetSyntheticTraffic.GarnetSyntheticTraffic object at 0x7f6b29d69eb8>, <m5.objects.GarnetSyntheticTraffic.GarnetSyntheticTraffic object at 0x7f6b29d736d8>, <m5.objects.GarnetSyntheticTraffic.GarnetSyntheticTraffic object at 0x7f6b29d73d30>, <m5.objects.GarnetSyntheticTraffic.GarnetSyntheticTraffic object at 0x7f6b298ffd68>, <m5.objects.GarnetSyntheticTraffic.GarnetSyntheticTraffic object at 0x7f6b2990b080>, <m5.objects.GarnetSyntheticTraffic.GarnetSyntheticTraffic object at 0x7f6b2990b358>, <m5.objects.GarnetSyntheticTraffic.GarnetSyntheticTraffic object at 0x7f6b2990b630>, <m5.objects.GarnetSyntheticTraffic.GarnetSyntheticTraffic object at 0x7f6b2990b908>, <m5.objects.GarnetSyntheticTraffic.GarnetSyntheticTraffic object at 0x7f6b2990bbe0>, <m5.objects.GarnetSyntheticTraffic.GarnetSyntheticTraffic object at 0x7f6b2990beb8>, <m5.objects.GarnetSyntheticTraffic.GarnetSyntheticTraffic object at 0x7f6b299121d0>, <m5.objects.GarnetSyntheticTraffic.GarnetSyntheticTraffic object at 0x7f6b299124a8>, <m5.objects.GarnetSyntheticTraffic.GarnetSyntheticTraffic object at 0x7f6b29912780>, <m5.objects.GarnetSyntheticTraffic.GarnetSyntheticTraffic object at 0x7f6b29912a58>, <m5.objects.GarnetSyntheticTraffic.GarnetSyntheticTraffic object at 0x7f6b29912d30>, <m5.objects.GarnetSyntheticTraffic.GarnetSyntheticTraffic object at 0x7f6b2991a048>, <m5.objects.GarnetSyntheticTraffic.GarnetSyntheticTraffic object at 0x7f6b2991a320>, <m5.objects.GarnetSyntheticTraffic.GarnetSyntheticTraffic object at 0x7f6b2991a5f8>, <m5.objects.GarnetSyntheticTraffic.GarnetSyntheticTraffic object at 0x7f6b2991a8d0>, <m5.objects.GarnetSyntheticTraffic.GarnetSyntheticTraffic object at 0x7f6b2991aba8>, <m5.objects.GarnetSyntheticTraffic.GarnetSyntheticTraffic object at 0x7f6b2991ae80>, <m5.objects.GarnetSyntheticTraffic.GarnetSyntheticTraffic object at 0x7f6b29923198>, <m5.objects.GarnetSyntheticTraffic.GarnetSyntheticTraffic object at 0x7f6b29923470>, <m5.objects.GarnetSyntheticTraffic.GarnetSyntheticTraffic object at 0x7f6b29923748>, <m5.objects.GarnetSyntheticTraffic.GarnetSyntheticTraffic object at 0x7f6b29923a20>, <m5.objects.GarnetSyntheticTraffic.GarnetSyntheticTraffic object at 0x7f6b29923cf8>, <m5.objects.GarnetSyntheticTraffic.GarnetSyntheticTraffic object at 0x7f6b29923fd0>])
ingesting configs/topologies/nr_list_ndbt/lpbt_m_latop_nndbt.nrl
ingesting configs/topologies/vn_maps_ndbt/lpbt_m_latop_nndbt_none_2vns.vn
ext_cdc_required = True
