gem5 Simulator System.  https://www.gem5.org
gem5 is copyrighted software; use the --copyright option for details.

gem5 version 22.0.0.2
gem5 compiled Jun 17 2023 14:31:12
gem5 started Nov 18 2023 15:48:31
gem5 executing on mnemosyne14.ecn.purdue.edu, pid 23153
command line: ./build/Garnet_standalone/gem5.fast -d ./synth_outputs/simple/2b/mixed/mclb_hops_4_6_40cpus_4xdirs_4.0GHz/coh/dbl_bfly_x/0_15/ configs/auto_top/auto_top_synth.py --topology EscapeVirtualNetworks --noi_routers 20 --sim-cycles 2147483647 --injectionrate 0.15 --noc_clk 4.0GHz --sys-clock 4.0GHz --ruby-clock 4.0GHz --noi_clk 2.7GHz --router_map_file configs/topologies/paper_solutions/dbl_bfly_x.map --flat_vn_map_file configs/topologies/vn_maps_mclb/dbl_bfly_x_mclb_hops_4vns.vn --flat_nr_map_file configs/topologies/nr_list_mclb/dbl_bfly_x_mclb.nrl --ruby --mem_or_coh coh --mem-size 320000000 --num-dirs 160 --num-cpus 40 --network garnet --mem-type SimpleMemory --routing-algorithm 2 --use_escape_vns --synth_traffic --vcs-per-vnet 6 --evn_deadlock_partition 2 --evn_n_deadlock_free 1 --evn_min_n_deadlock_free 4

info: Standard input is not a terminal, disabling listeners.
ingesting configs/topologies/vn_maps_mclb/dbl_bfly_x_mclb_hops_4vns.vn
cpus(40)=[<m5.objects.GarnetSyntheticTraffic.GarnetSyntheticTraffic object at 0x7f31489f0048>, <m5.objects.GarnetSyntheticTraffic.GarnetSyntheticTraffic object at 0x7f31489f0e10>, <m5.objects.GarnetSyntheticTraffic.GarnetSyntheticTraffic object at 0x7f314856d128>, <m5.objects.GarnetSyntheticTraffic.GarnetSyntheticTraffic object at 0x7f314856d400>, <m5.objects.GarnetSyntheticTraffic.GarnetSyntheticTraffic object at 0x7f314856d6d8>, <m5.objects.GarnetSyntheticTraffic.GarnetSyntheticTraffic object at 0x7f314856d9b0>, <m5.objects.GarnetSyntheticTraffic.GarnetSyntheticTraffic object at 0x7f314856dc88>, <m5.objects.GarnetSyntheticTraffic.GarnetSyntheticTraffic object at 0x7f314856df60>, <m5.objects.GarnetSyntheticTraffic.GarnetSyntheticTraffic object at 0x7f3148576278>, <m5.objects.GarnetSyntheticTraffic.GarnetSyntheticTraffic object at 0x7f3148576550>, <m5.objects.GarnetSyntheticTraffic.GarnetSyntheticTraffic object at 0x7f3148576828>, <m5.objects.GarnetSyntheticTraffic.GarnetSyntheticTraffic object at 0x7f3148576b00>, <m5.objects.GarnetSyntheticTraffic.GarnetSyntheticTraffic object at 0x7f31489f0860>, <m5.objects.GarnetSyntheticTraffic.GarnetSyntheticTraffic object at 0x7f31489e0eb8>, <m5.objects.GarnetSyntheticTraffic.GarnetSyntheticTraffic object at 0x7f31489ea6d8>, <m5.objects.GarnetSyntheticTraffic.GarnetSyntheticTraffic object at 0x7f31489ead30>, <m5.objects.GarnetSyntheticTraffic.GarnetSyntheticTraffic object at 0x7f3148576d68>, <m5.objects.GarnetSyntheticTraffic.GarnetSyntheticTraffic object at 0x7f3148582080>, <m5.objects.GarnetSyntheticTraffic.GarnetSyntheticTraffic object at 0x7f3148582358>, <m5.objects.GarnetSyntheticTraffic.GarnetSyntheticTraffic object at 0x7f3148582630>, <m5.objects.GarnetSyntheticTraffic.GarnetSyntheticTraffic object at 0x7f3148582908>, <m5.objects.GarnetSyntheticTraffic.GarnetSyntheticTraffic object at 0x7f3148582be0>, <m5.objects.GarnetSyntheticTraffic.GarnetSyntheticTraffic object at 0x7f3148582eb8>, <m5.objects.GarnetSyntheticTraffic.GarnetSyntheticTraffic object at 0x7f31485891d0>, <m5.objects.GarnetSyntheticTraffic.GarnetSyntheticTraffic object at 0x7f31485894a8>, <m5.objects.GarnetSyntheticTraffic.GarnetSyntheticTraffic object at 0x7f3148589780>, <m5.objects.GarnetSyntheticTraffic.GarnetSyntheticTraffic object at 0x7f3148589a58>, <m5.objects.GarnetSyntheticTraffic.GarnetSyntheticTraffic object at 0x7f3148589d30>, <m5.objects.GarnetSyntheticTraffic.GarnetSyntheticTraffic object at 0x7f3148591048>, <m5.objects.GarnetSyntheticTraffic.GarnetSyntheticTraffic object at 0x7f3148591320>, <m5.objects.GarnetSyntheticTraffic.GarnetSyntheticTraffic object at 0x7f31485915f8>, <m5.objects.GarnetSyntheticTraffic.GarnetSyntheticTraffic object at 0x7f31485918d0>, <m5.objects.GarnetSyntheticTraffic.GarnetSyntheticTraffic object at 0x7f3148591ba8>, <m5.objects.GarnetSyntheticTraffic.GarnetSyntheticTraffic object at 0x7f3148591e80>, <m5.objects.GarnetSyntheticTraffic.GarnetSyntheticTraffic object at 0x7f314859a198>, <m5.objects.GarnetSyntheticTraffic.GarnetSyntheticTraffic object at 0x7f314859a470>, <m5.objects.GarnetSyntheticTraffic.GarnetSyntheticTraffic object at 0x7f314859a748>, <m5.objects.GarnetSyntheticTraffic.GarnetSyntheticTraffic object at 0x7f314859aa20>, <m5.objects.GarnetSyntheticTraffic.GarnetSyntheticTraffic object at 0x7f314859acf8>, <m5.objects.GarnetSyntheticTraffic.GarnetSyntheticTraffic object at 0x7f314859afd0>])
ingesting configs/topologies/nr_list_mclb/dbl_bfly_x_mclb.nrl
ingesting configs/topologies/vn_maps_mclb/dbl_bfly_x_mclb_hops_4vns.vn
ext_cdc_required = True
