gem5 Simulator System.  https://www.gem5.org
gem5 is copyrighted software; use the --copyright option for details.

gem5 version 22.0.0.2
gem5 compiled Jun 17 2023 14:31:12
gem5 started Nov 18 2023 15:50:16
gem5 executing on mnemosyne24.ecn.purdue.edu, pid 14683
command line: ./build/Garnet_standalone/gem5.fast -d ./synth_outputs/simple/2b/mixed/nndbt_none_2_6_40cpus_4xdirs_4.0GHz/mem/kite_small/0_15/ configs/auto_top/auto_top_synth.py --topology EscapeVirtualNetworks --noi_routers 20 --sim-cycles 2147483647 --injectionrate 0.15 --noc_clk 4.0GHz --sys-clock 4.0GHz --ruby-clock 4.0GHz --noi_clk 3.6GHz --router_map_file configs/topologies/paper_solutions/kite_small.map --flat_vn_map_file configs/topologies/vn_maps_ndbt/kite_small_nndbt_none_2vns.vn --flat_nr_map_file configs/topologies/nr_list_ndbt/kite_small_nndbt.nrl --ruby --mem_or_coh mem --mem-size 320000000 --num-dirs 64 --num-cpus 40 --network garnet --mem-type SimpleMemory --routing-algorithm 2 --use_escape_vns --synth_traffic --vcs-per-vnet 6 --evn_deadlock_partition 4 --evn_n_deadlock_free 1 --evn_min_n_deadlock_free 2

info: Standard input is not a terminal, disabling listeners.
ingesting configs/topologies/vn_maps_ndbt/kite_small_nndbt_none_2vns.vn
cpus(40)=[<m5.objects.GarnetSyntheticTraffic.GarnetSyntheticTraffic object at 0x7f4219e710f0>, <m5.objects.GarnetSyntheticTraffic.GarnetSyntheticTraffic object at 0x7f4219e71dd8>, <m5.objects.GarnetSyntheticTraffic.GarnetSyntheticTraffic object at 0x7f42199ee0f0>, <m5.objects.GarnetSyntheticTraffic.GarnetSyntheticTraffic object at 0x7f42199ee3c8>, <m5.objects.GarnetSyntheticTraffic.GarnetSyntheticTraffic object at 0x7f42199ee6a0>, <m5.objects.GarnetSyntheticTraffic.GarnetSyntheticTraffic object at 0x7f42199ee978>, <m5.objects.GarnetSyntheticTraffic.GarnetSyntheticTraffic object at 0x7f42199eec50>, <m5.objects.GarnetSyntheticTraffic.GarnetSyntheticTraffic object at 0x7f42199eef28>, <m5.objects.GarnetSyntheticTraffic.GarnetSyntheticTraffic object at 0x7f42199f7240>, <m5.objects.GarnetSyntheticTraffic.GarnetSyntheticTraffic object at 0x7f42199f7518>, <m5.objects.GarnetSyntheticTraffic.GarnetSyntheticTraffic object at 0x7f42199f77f0>, <m5.objects.GarnetSyntheticTraffic.GarnetSyntheticTraffic object at 0x7f42199f7ac8>, <m5.objects.GarnetSyntheticTraffic.GarnetSyntheticTraffic object at 0x7f4219e717b8>, <m5.objects.GarnetSyntheticTraffic.GarnetSyntheticTraffic object at 0x7f4219e61e48>, <m5.objects.GarnetSyntheticTraffic.GarnetSyntheticTraffic object at 0x7f4219e6b668>, <m5.objects.GarnetSyntheticTraffic.GarnetSyntheticTraffic object at 0x7f4219e6bcc0>, <m5.objects.GarnetSyntheticTraffic.GarnetSyntheticTraffic object at 0x7f42199f7d30>, <m5.objects.GarnetSyntheticTraffic.GarnetSyntheticTraffic object at 0x7f4219a03048>, <m5.objects.GarnetSyntheticTraffic.GarnetSyntheticTraffic object at 0x7f4219a03320>, <m5.objects.GarnetSyntheticTraffic.GarnetSyntheticTraffic object at 0x7f4219a035f8>, <m5.objects.GarnetSyntheticTraffic.GarnetSyntheticTraffic object at 0x7f4219a038d0>, <m5.objects.GarnetSyntheticTraffic.GarnetSyntheticTraffic object at 0x7f4219a03ba8>, <m5.objects.GarnetSyntheticTraffic.GarnetSyntheticTraffic object at 0x7f4219a03e80>, <m5.objects.GarnetSyntheticTraffic.GarnetSyntheticTraffic object at 0x7f4219a0a198>, <m5.objects.GarnetSyntheticTraffic.GarnetSyntheticTraffic object at 0x7f4219a0a470>, <m5.objects.GarnetSyntheticTraffic.GarnetSyntheticTraffic object at 0x7f4219a0a748>, <m5.objects.GarnetSyntheticTraffic.GarnetSyntheticTraffic object at 0x7f4219a0aa20>, <m5.objects.GarnetSyntheticTraffic.GarnetSyntheticTraffic object at 0x7f4219a0acf8>, <m5.objects.GarnetSyntheticTraffic.GarnetSyntheticTraffic object at 0x7f4219a0afd0>, <m5.objects.GarnetSyntheticTraffic.GarnetSyntheticTraffic object at 0x7f4219a122e8>, <m5.objects.GarnetSyntheticTraffic.GarnetSyntheticTraffic object at 0x7f4219a125c0>, <m5.objects.GarnetSyntheticTraffic.GarnetSyntheticTraffic object at 0x7f4219a12898>, <m5.objects.GarnetSyntheticTraffic.GarnetSyntheticTraffic object at 0x7f4219a12b70>, <m5.objects.GarnetSyntheticTraffic.GarnetSyntheticTraffic object at 0x7f4219a12e48>, <m5.objects.GarnetSyntheticTraffic.GarnetSyntheticTraffic object at 0x7f4219a1b160>, <m5.objects.GarnetSyntheticTraffic.GarnetSyntheticTraffic object at 0x7f4219a1b438>, <m5.objects.GarnetSyntheticTraffic.GarnetSyntheticTraffic object at 0x7f4219a1b710>, <m5.objects.GarnetSyntheticTraffic.GarnetSyntheticTraffic object at 0x7f4219a1b9e8>, <m5.objects.GarnetSyntheticTraffic.GarnetSyntheticTraffic object at 0x7f4219a1bcc0>, <m5.objects.GarnetSyntheticTraffic.GarnetSyntheticTraffic object at 0x7f4219a1bf98>])
ingesting configs/topologies/nr_list_ndbt/kite_small_nndbt.nrl
ingesting configs/topologies/vn_maps_ndbt/kite_small_nndbt_none_2vns.vn
ext_cdc_required = True
