gem5 Simulator System.  https://www.gem5.org
gem5 is copyrighted software; use the --copyright option for details.

gem5 version 22.0.0.2
gem5 compiled Jun 17 2023 14:31:12
gem5 started Nov 18 2023 15:49:13
gem5 executing on mnemosyne14.ecn.purdue.edu, pid 23476
command line: ./build/Garnet_standalone/gem5.fast -d ./synth_outputs/simple/2b/mixed/mclb_hops_4_6_40cpus_4xdirs_4.0GHz/coh/kite_medium/0_16/ configs/auto_top/auto_top_synth.py --topology EscapeVirtualNetworks --noi_routers 20 --sim-cycles 2147483647 --injectionrate 0.16 --noc_clk 4.0GHz --sys-clock 4.0GHz --ruby-clock 4.0GHz --noi_clk 3.0GHz --router_map_file configs/topologies/paper_solutions/kite_medium.map --flat_vn_map_file configs/topologies/vn_maps_mclb/kite_medium_mclb_hops_4vns.vn --flat_nr_map_file configs/topologies/nr_list_mclb/kite_medium_mclb.nrl --ruby --mem_or_coh coh --mem-size 320000000 --num-dirs 160 --num-cpus 40 --network garnet --mem-type SimpleMemory --routing-algorithm 2 --use_escape_vns --synth_traffic --vcs-per-vnet 6 --evn_deadlock_partition 2 --evn_n_deadlock_free 1 --evn_min_n_deadlock_free 4

info: Standard input is not a terminal, disabling listeners.
ingesting configs/topologies/vn_maps_mclb/kite_medium_mclb_hops_4vns.vn
cpus(40)=[<m5.objects.GarnetSyntheticTraffic.GarnetSyntheticTraffic object at 0x7f56cac99080>, <m5.objects.GarnetSyntheticTraffic.GarnetSyntheticTraffic object at 0x7f56cac99da0>, <m5.objects.GarnetSyntheticTraffic.GarnetSyntheticTraffic object at 0x7f56ca8150b8>, <m5.objects.GarnetSyntheticTraffic.GarnetSyntheticTraffic object at 0x7f56ca815390>, <m5.objects.GarnetSyntheticTraffic.GarnetSyntheticTraffic object at 0x7f56ca815668>, <m5.objects.GarnetSyntheticTraffic.GarnetSyntheticTraffic object at 0x7f56ca815940>, <m5.objects.GarnetSyntheticTraffic.GarnetSyntheticTraffic object at 0x7f56ca815c18>, <m5.objects.GarnetSyntheticTraffic.GarnetSyntheticTraffic object at 0x7f56ca815ef0>, <m5.objects.GarnetSyntheticTraffic.GarnetSyntheticTraffic object at 0x7f56ca81e208>, <m5.objects.GarnetSyntheticTraffic.GarnetSyntheticTraffic object at 0x7f56ca81e4e0>, <m5.objects.GarnetSyntheticTraffic.GarnetSyntheticTraffic object at 0x7f56ca81e7b8>, <m5.objects.GarnetSyntheticTraffic.GarnetSyntheticTraffic object at 0x7f56ca81ea90>, <m5.objects.GarnetSyntheticTraffic.GarnetSyntheticTraffic object at 0x7f56cac99898>, <m5.objects.GarnetSyntheticTraffic.GarnetSyntheticTraffic object at 0x7f56cac88e10>, <m5.objects.GarnetSyntheticTraffic.GarnetSyntheticTraffic object at 0x7f56cac92748>, <m5.objects.GarnetSyntheticTraffic.GarnetSyntheticTraffic object at 0x7f56cac92da0>, <m5.objects.GarnetSyntheticTraffic.GarnetSyntheticTraffic object at 0x7f56ca81ecf8>, <m5.objects.GarnetSyntheticTraffic.GarnetSyntheticTraffic object at 0x7f56ca81efd0>, <m5.objects.GarnetSyntheticTraffic.GarnetSyntheticTraffic object at 0x7f56ca82a2e8>, <m5.objects.GarnetSyntheticTraffic.GarnetSyntheticTraffic object at 0x7f56ca82a5c0>, <m5.objects.GarnetSyntheticTraffic.GarnetSyntheticTraffic object at 0x7f56ca82a898>, <m5.objects.GarnetSyntheticTraffic.GarnetSyntheticTraffic object at 0x7f56ca82ab70>, <m5.objects.GarnetSyntheticTraffic.GarnetSyntheticTraffic object at 0x7f56ca82ae48>, <m5.objects.GarnetSyntheticTraffic.GarnetSyntheticTraffic object at 0x7f56ca832160>, <m5.objects.GarnetSyntheticTraffic.GarnetSyntheticTraffic object at 0x7f56ca832438>, <m5.objects.GarnetSyntheticTraffic.GarnetSyntheticTraffic object at 0x7f56ca832710>, <m5.objects.GarnetSyntheticTraffic.GarnetSyntheticTraffic object at 0x7f56ca8329e8>, <m5.objects.GarnetSyntheticTraffic.GarnetSyntheticTraffic object at 0x7f56ca832cc0>, <m5.objects.GarnetSyntheticTraffic.GarnetSyntheticTraffic object at 0x7f56ca832f98>, <m5.objects.GarnetSyntheticTraffic.GarnetSyntheticTraffic object at 0x7f56ca8392b0>, <m5.objects.GarnetSyntheticTraffic.GarnetSyntheticTraffic object at 0x7f56ca839588>, <m5.objects.GarnetSyntheticTraffic.GarnetSyntheticTraffic object at 0x7f56ca839860>, <m5.objects.GarnetSyntheticTraffic.GarnetSyntheticTraffic object at 0x7f56ca839b38>, <m5.objects.GarnetSyntheticTraffic.GarnetSyntheticTraffic object at 0x7f56ca839e10>, <m5.objects.GarnetSyntheticTraffic.GarnetSyntheticTraffic object at 0x7f56ca842128>, <m5.objects.GarnetSyntheticTraffic.GarnetSyntheticTraffic object at 0x7f56ca842400>, <m5.objects.GarnetSyntheticTraffic.GarnetSyntheticTraffic object at 0x7f56ca8426d8>, <m5.objects.GarnetSyntheticTraffic.GarnetSyntheticTraffic object at 0x7f56ca8429b0>, <m5.objects.GarnetSyntheticTraffic.GarnetSyntheticTraffic object at 0x7f56ca842c88>, <m5.objects.GarnetSyntheticTraffic.GarnetSyntheticTraffic object at 0x7f56ca842f60>])
ingesting configs/topologies/nr_list_mclb/kite_medium_mclb.nrl
ingesting configs/topologies/vn_maps_mclb/kite_medium_mclb_hops_4vns.vn
ext_cdc_required = True
