FileNotFoundError: [Errno 2] No such file or directory: 'topologies_and_routing/nr_lists/dbl_bfly_x_noci_nndbt_picky.nrl'

At:
  /home/min/a/green456/netsmith_icpp24/auto_top_gem5/configs/topologies/FS_NoCI_EscapeVirtualNetworks.py(570): ingest_flat_map_list
  /home/min/a/green456/netsmith_icpp24/auto_top_gem5/configs/topologies/FS_NoCI_EscapeVirtualNetworks.py(108): makeTopology
  /home/min/a/green456/netsmith_icpp24/auto_top_gem5/configs/ruby/Ruby.py(224): create_system
  configs/netsmith/netsmith_parsec.py(218): build_test_system
  configs/netsmith/netsmith_parsec.py(518): <module>
  build/X86/python/m5/main.py(434): main
gem5 Simulator System.  https://www.gem5.org
gem5 is copyrighted software; use the --copyright option for details.

gem5 version 22.0.0.2
gem5 compiled Apr 28 2024 22:23:45
gem5 started Jun 14 2024 12:42:22
gem5 executing on mnemosyne.ecn.purdue.edu, pid 15043
command line: ./build/X86/gem5.fast -d ./parsec_results/noci_32GBxDDR4_2envs_38GHz_2MBl2_allthreads_64lwidth_sameflowpriority_lwbufadj/1000warmup_1000simul/blackscholes/dbl_bfly_x_noci_nndbt_picky_none/ configs/netsmith/netsmith_parsec.py -I 1000 --insts_after_warmup 1000 --benchmark_parsec blackscholes -r 1 --checkpoint-dir ./parsec_noci_checkpoints/roi_checkpoint/system_5/blackscholes --router_map_file ./topologies_and_routing/topo_maps/noci/dbl_bfly_x_noci.map --flat_vn_map_file topologies_and_routing/vn_maps/dbl_bfly_x_noci_nndbt_picky_none_2vns.vn --flat_nr_map_file topologies_and_routing/nr_lists/dbl_bfly_x_noci_nndbt_picky.nrl --topology FS_NoCI_EscapeVirtualNetworks --noi_routers 20 --noc_clk 3.8GHz --sys-clock 3.8GHz --cpu-clock 3.8GHz --ruby-clock 3.8GHz --noi_clk 2.7GHz --num-cpus 64 --mem_or_coh mem --num-dirs 32 --caches --num-l2caches 64 --l2_size 2MB --num_chiplets 4 --mem-size 32GB --ruby --network garnet --link-width-bits 64 --kernel /home/yara/mithuna2/green456/netsmith_autotop/auto_top_gem5/parsec_disk_image/vmlinux-5.4.49 --disk-image /home/yara/mithuna2/green456/netsmith_autotop/auto_top_gem5/parsec_disk_image/x86-parsec --cpu-type X86O3CPU --routing-algorithm 2 --use_escape_vns --vcs-per-vnet 10 --evn_n_deadlock_free 1 --evn_min_n_deadlock_free 2 --evn_deadlock_partition 8 --mem-type DDR4_2400_16x4

l1_caches(64)=[<m5.objects.L1Cache_Controller.L1Cache_Controller object at 0x7f3e1ba9feb8>, <m5.objects.L1Cache_Controller.L1Cache_Controller object at 0x7f3e1baa3f28>, <m5.objects.L1Cache_Controller.L1Cache_Controller object at 0x7f3e1bab0f28>, <m5.objects.L1Cache_Controller.L1Cache_Controller object at 0x7f3e1bab9f28>, <m5.objects.L1Cache_Controller.L1Cache_Controller object at 0x7f3e1bac2f28>, <m5.objects.L1Cache_Controller.L1Cache_Controller object at 0x7f3e1ba4bf28>, <m5.objects.L1Cache_Controller.L1Cache_Controller object at 0x7f3e1ba54f28>, <m5.objects.L1Cache_Controller.L1Cache_Controller object at 0x7f3e1ba5ef28>, <m5.objects.L1Cache_Controller.L1Cache_Controller object at 0x7f3e1ba67f28>, <m5.objects.L1Cache_Controller.L1Cache_Controller object at 0x7f3e1ba6ff28>, <m5.objects.L1Cache_Controller.L1Cache_Controller object at 0x7f3e1ba79f28>, <m5.objects.L1Cache_Controller.L1Cache_Controller object at 0x7f3e1ba81f28>, <m5.objects.L1Cache_Controller.L1Cache_Controller object at 0x7f3e1ba0bf28>, <m5.objects.L1Cache_Controller.L1Cache_Controller object at 0x7f3e1ba13f28>, <m5.objects.L1Cache_Controller.L1Cache_Controller object at 0x7f3e1ba1cf28>, <m5.objects.L1Cache_Controller.L1Cache_Controller object at 0x7f3e1ba26f28>, <m5.objects.L1Cache_Controller.L1Cache_Controller object at 0x7f3e1ba2ff28>, <m5.objects.L1Cache_Controller.L1Cache_Controller object at 0x7f3e1ba38f28>, <m5.objects.L1Cache_Controller.L1Cache_Controller object at 0x7f3e1ba40f28>, <m5.objects.L1Cache_Controller.L1Cache_Controller object at 0x7f3e1b9cbf28>, <m5.objects.L1Cache_Controller.L1Cache_Controller object at 0x7f3e1b9d3f28>, <m5.objects.L1Cache_Controller.L1Cache_Controller object at 0x7f3e1b9ddf28>, <m5.objects.L1Cache_Controller.L1Cache_Controller object at 0x7f3e1b9e5f28>, <m5.objects.L1Cache_Controller.L1Cache_Controller object at 0x7f3e1b9f0f28>, <m5.objects.L1Cache_Controller.L1Cache_Controller object at 0x7f3e1b9f8f28>, <m5.objects.L1Cache_Controller.L1Cache_Controller object at 0x7f3e1ba01f28>, <m5.objects.L1Cache_Controller.L1Cache_Controller object at 0x7f3e1b98af28>, <m5.objects.L1Cache_Controller.L1Cache_Controller object at 0x7f3e1b992f28>, <m5.objects.L1Cache_Controller.L1Cache_Controller object at 0x7f3e1b99cf28>, <m5.objects.L1Cache_Controller.L1Cache_Controller object at 0x7f3e1b9a5f28>, <m5.objects.L1Cache_Controller.L1Cache_Controller object at 0x7f3e1b9aff28>, <m5.objects.L1Cache_Controller.L1Cache_Controller object at 0x7f3e1b9b8f28>, <m5.objects.L1Cache_Controller.L1Cache_Controller object at 0x7f3e1b9c2f28>, <m5.objects.L1Cache_Controller.L1Cache_Controller object at 0x7f3e1b94af28>, <m5.objects.L1Cache_Controller.L1Cache_Controller object at 0x7f3e1b953f28>, <m5.objects.L1Cache_Controller.L1Cache_Controller object at 0x7f3e1b95cf28>, <m5.objects.L1Cache_Controller.L1Cache_Controller object at 0x7f3e1b964f28>, <m5.objects.L1Cache_Controller.L1Cache_Controller object at 0x7f3e1b96ef28>, <m5.objects.L1Cache_Controller.L1Cache_Controller object at 0x7f3e1b976f28>, <m5.objects.L1Cache_Controller.L1Cache_Controller object at 0x7f3e1b980f28>, <m5.objects.L1Cache_Controller.L1Cache_Controller object at 0x7f3e1b988f28>, <m5.objects.L1Cache_Controller.L1Cache_Controller object at 0x7f3e1b912f28>, <m5.objects.L1Cache_Controller.L1Cache_Controller object at 0x7f3e1b91aef0>, <m5.objects.L1Cache_Controller.L1Cache_Controller object at 0x7f3e1b925ef0>, <m5.objects.L1Cache_Controller.L1Cache_Controller object at 0x7f3e1b92eef0>, <m5.objects.L1Cache_Controller.L1Cache_Controller object at 0x7f3e1b937ef0>, <m5.objects.L1Cache_Controller.L1Cache_Controller object at 0x7f3e1b940ef0>, <m5.objects.L1Cache_Controller.L1Cache_Controller object at 0x7f3e1b948ef0>, <m5.objects.L1Cache_Controller.L1Cache_Controller object at 0x7f3e1b8d4ef0>, <m5.objects.L1Cache_Controller.L1Cache_Controller object at 0x7f3e1b8dcef0>, <m5.objects.L1Cache_Controller.L1Cache_Controller object at 0x7f3e1b8e6ef0>, <m5.objects.L1Cache_Controller.L1Cache_Controller object at 0x7f3e1b8eeef0>, <m5.objects.L1Cache_Controller.L1Cache_Controller object at 0x7f3e1b8f7ef0>, <m5.objects.L1Cache_Controller.L1Cache_Controller object at 0x7f3e1b900ef0>, <m5.objects.L1Cache_Controller.L1Cache_Controller object at 0x7f3e1b909ef0>, <m5.objects.L1Cache_Controller.L1Cache_Controller object at 0x7f3e1b893ef0>, <m5.objects.L1Cache_Controller.L1Cache_Controller object at 0x7f3e1b89cef0>, <m5.objects.L1Cache_Controller.L1Cache_Controller object at 0x7f3e1b8a6ef0>, <m5.objects.L1Cache_Controller.L1Cache_Controller object at 0x7f3e1b8aeef0>, <m5.objects.L1Cache_Controller.L1Cache_Controller object at 0x7f3e1b8b7ef0>, <m5.objects.L1Cache_Controller.L1Cache_Controller object at 0x7f3e1b8bfef0>, <m5.objects.L1Cache_Controller.L1Cache_Controller object at 0x7f3e1b8c8ef0>, <m5.objects.L1Cache_Controller.L1Cache_Controller object at 0x7f3e1b851ef0>, <m5.objects.L1Cache_Controller.L1Cache_Controller object at 0x7f3e1b85aef0>]

l2_caches(64)=[<m5.objects.L2Cache_Controller.L2Cache_Controller object at 0x7f3e1b863be0>, <m5.objects.L2Cache_Controller.L2Cache_Controller object at 0x7f3e1b86b668>, <m5.objects.L2Cache_Controller.L2Cache_Controller object at 0x7f3e1b8750f0>, <m5.objects.L2Cache_Controller.L2Cache_Controller object at 0x7f3e1b875b38>, <m5.objects.L2Cache_Controller.L2Cache_Controller object at 0x7f3e1b87d5c0>, <m5.objects.L2Cache_Controller.L2Cache_Controller object at 0x7f3e1b887048>, <m5.objects.L2Cache_Controller.L2Cache_Controller object at 0x7f3e1b887a90>, <m5.objects.L2Cache_Controller.L2Cache_Controller object at 0x7f3e1b80f518>, <m5.objects.L2Cache_Controller.L2Cache_Controller object at 0x7f3e1b80ff60>, <m5.objects.L2Cache_Controller.L2Cache_Controller object at 0x7f3e1b8189e8>, <m5.objects.L2Cache_Controller.L2Cache_Controller object at 0x7f3e1b821470>, <m5.objects.L2Cache_Controller.L2Cache_Controller object at 0x7f3e1b821eb8>, <m5.objects.L2Cache_Controller.L2Cache_Controller object at 0x7f3e1b829940>, <m5.objects.L2Cache_Controller.L2Cache_Controller object at 0x7f3e1b8333c8>, <m5.objects.L2Cache_Controller.L2Cache_Controller object at 0x7f3e1b833e10>, <m5.objects.L2Cache_Controller.L2Cache_Controller object at 0x7f3e1b83c898>, <m5.objects.L2Cache_Controller.L2Cache_Controller object at 0x7f3e1b844320>, <m5.objects.L2Cache_Controller.L2Cache_Controller object at 0x7f3e1b844d68>, <m5.objects.L2Cache_Controller.L2Cache_Controller object at 0x7f3e1b7ce7f0>, <m5.objects.L2Cache_Controller.L2Cache_Controller object at 0x7f3e1b7d7278>, <m5.objects.L2Cache_Controller.L2Cache_Controller object at 0x7f3e1b7d7cc0>, <m5.objects.L2Cache_Controller.L2Cache_Controller object at 0x7f3e1b7e1748>, <m5.objects.L2Cache_Controller.L2Cache_Controller object at 0x7f3e1b7ea1d0>, <m5.objects.L2Cache_Controller.L2Cache_Controller object at 0x7f3e1b7eac18>, <m5.objects.L2Cache_Controller.L2Cache_Controller object at 0x7f3e1b7f26a0>, <m5.objects.L2Cache_Controller.L2Cache_Controller object at 0x7f3e1b7fc128>, <m5.objects.L2Cache_Controller.L2Cache_Controller object at 0x7f3e1b7fcb70>, <m5.objects.L2Cache_Controller.L2Cache_Controller object at 0x7f3e1b8045f8>, <m5.objects.L2Cache_Controller.L2Cache_Controller object at 0x7f3e1b78d080>, <m5.objects.L2Cache_Controller.L2Cache_Controller object at 0x7f3e1b78dac8>, <m5.objects.L2Cache_Controller.L2Cache_Controller object at 0x7f3e1b797550>, <m5.objects.L2Cache_Controller.L2Cache_Controller object at 0x7f3e1b797f98>, <m5.objects.L2Cache_Controller.L2Cache_Controller object at 0x7f3e1b79fa20>, <m5.objects.L2Cache_Controller.L2Cache_Controller object at 0x7f3e1b7a94a8>, <m5.objects.L2Cache_Controller.L2Cache_Controller object at 0x7f3e1b7a9ef0>, <m5.objects.L2Cache_Controller.L2Cache_Controller object at 0x7f3e1b7b2978>, <m5.objects.L2Cache_Controller.L2Cache_Controller object at 0x7f3e1b7b9400>, <m5.objects.L2Cache_Controller.L2Cache_Controller object at 0x7f3e1b7b9e48>, <m5.objects.L2Cache_Controller.L2Cache_Controller object at 0x7f3e1b7c38d0>, <m5.objects.L2Cache_Controller.L2Cache_Controller object at 0x7f3e1b74b358>, <m5.objects.L2Cache_Controller.L2Cache_Controller object at 0x7f3e1b74bda0>, <m5.objects.L2Cache_Controller.L2Cache_Controller object at 0x7f3e1b756828>, <m5.objects.L2Cache_Controller.L2Cache_Controller object at 0x7f3e1b7602b0>, <m5.objects.L2Cache_Controller.L2Cache_Controller object at 0x7f3e1b760cf8>, <m5.objects.L2Cache_Controller.L2Cache_Controller object at 0x7f3e1b767780>, <m5.objects.L2Cache_Controller.L2Cache_Controller object at 0x7f3e1b771208>, <m5.objects.L2Cache_Controller.L2Cache_Controller object at 0x7f3e1b771c50>, <m5.objects.L2Cache_Controller.L2Cache_Controller object at 0x7f3e1b7796d8>, <m5.objects.L2Cache_Controller.L2Cache_Controller object at 0x7f3e1b782160>, <m5.objects.L2Cache_Controller.L2Cache_Controller object at 0x7f3e1b782ba8>, <m5.objects.L2Cache_Controller.L2Cache_Controller object at 0x7f3e1b70b630>, <m5.objects.L2Cache_Controller.L2Cache_Controller object at 0x7f3e1b7130b8>, <m5.objects.L2Cache_Controller.L2Cache_Controller object at 0x7f3e1b713b00>, <m5.objects.L2Cache_Controller.L2Cache_Controller object at 0x7f3e1b71c588>, <m5.objects.L2Cache_Controller.L2Cache_Controller object at 0x7f3e1b71cfd0>, <m5.objects.L2Cache_Controller.L2Cache_Controller object at 0x7f3e1b726a58>, <m5.objects.L2Cache_Controller.L2Cache_Controller object at 0x7f3e1b72e4e0>, <m5.objects.L2Cache_Controller.L2Cache_Controller object at 0x7f3e1b72ef28>, <m5.objects.L2Cache_Controller.L2Cache_Controller object at 0x7f3e1b7389b0>, <m5.objects.L2Cache_Controller.L2Cache_Controller object at 0x7f3e1b741438>, <m5.objects.L2Cache_Controller.L2Cache_Controller object at 0x7f3e1b741e80>, <m5.objects.L2Cache_Controller.L2Cache_Controller object at 0x7f3e1b6ca908>, <m5.objects.L2Cache_Controller.L2Cache_Controller object at 0x7f3e1b6d3390>, <m5.objects.L2Cache_Controller.L2Cache_Controller object at 0x7f3e1b6d3dd8>]

dirs(32)=[<m5.objects.Directory_Controller.Directory_Controller object at 0x7f3e1b6db748>, <m5.objects.Directory_Controller.Directory_Controller object at 0x7f3e1b6db978>, <m5.objects.Directory_Controller.Directory_Controller object at 0x7f3e1b6dbba8>, <m5.objects.Directory_Controller.Directory_Controller object at 0x7f3e1b6dbdd8>, <m5.objects.Directory_Controller.Directory_Controller object at 0x7f3e1b6e7048>, <m5.objects.Directory_Controller.Directory_Controller object at 0x7f3e1b6e7278>, <m5.objects.Directory_Controller.Directory_Controller object at 0x7f3e1b6e74a8>, <m5.objects.Directory_Controller.Directory_Controller object at 0x7f3e1b6e76d8>, <m5.objects.Directory_Controller.Directory_Controller object at 0x7f3e1b6e7908>, <m5.objects.Directory_Controller.Directory_Controller object at 0x7f3e1b6e7b38>, <m5.objects.Directory_Controller.Directory_Controller object at 0x7f3e1b6e7d68>, <m5.objects.Directory_Controller.Directory_Controller object at 0x7f3e1b6e7f98>, <m5.objects.Directory_Controller.Directory_Controller object at 0x7f3e1b6f1208>, <m5.objects.Directory_Controller.Directory_Controller object at 0x7f3e1b6f1438>, <m5.objects.Directory_Controller.Directory_Controller object at 0x7f3e1b6f1668>, <m5.objects.Directory_Controller.Directory_Controller object at 0x7f3e1b6f1898>, <m5.objects.Directory_Controller.Directory_Controller object at 0x7f3e1b6f1ac8>, <m5.objects.Directory_Controller.Directory_Controller object at 0x7f3e1b6f1cf8>, <m5.objects.Directory_Controller.Directory_Controller object at 0x7f3e1b6f1f28>, <m5.objects.Directory_Controller.Directory_Controller object at 0x7f3e1b6fd198>, <m5.objects.Directory_Controller.Directory_Controller object at 0x7f3e1b6fd3c8>, <m5.objects.Directory_Controller.Directory_Controller object at 0x7f3e1b6fd5f8>, <m5.objects.Directory_Controller.Directory_Controller object at 0x7f3e1b6fd828>, <m5.objects.Directory_Controller.Directory_Controller object at 0x7f3e1b6fda58>, <m5.objects.Directory_Controller.Directory_Controller object at 0x7f3e1b6fdc88>, <m5.objects.Directory_Controller.Directory_Controller object at 0x7f3e1b6fdeb8>, <m5.objects.Directory_Controller.Directory_Controller object at 0x7f3e1b709128>, <m5.objects.Directory_Controller.Directory_Controller object at 0x7f3e1b709358>, <m5.objects.Directory_Controller.Directory_Controller object at 0x7f3e1b709588>, <m5.objects.Directory_Controller.Directory_Controller object at 0x7f3e1b7097b8>, <m5.objects.Directory_Controller.Directory_Controller object at 0x7f3e1b7099e8>, <m5.objects.Directory_Controller.Directory_Controller object at 0x7f3e1b709c18>]

dmas(2)=[<m5.objects.DMA_Controller.DMA_Controller object at 0x7f3e1b66d5f8>, <m5.objects.DMA_Controller.DMA_Controller object at 0x7f3e1b66dc18>]

others(0)=[]

ingesting topologies_and_routing/nr_lists/dbl_bfly_x_noci_nndbt_picky.nrl w/ # rotuers = 84
warn: Memory mode will be changed to atomic_noncaching
warn: Physical memory size specified is 32GB which is greater than 3GB.  Twice the number of memory controllers would be created.
