FileNotFoundError: [Errno 2] No such file or directory: 'topologies_and_routing/nr_lists/butter_donut_x_noci_nndbt_picky.nrl'

At:
  /home/min/a/green456/netsmith_icpp24/auto_top_gem5/configs/topologies/FS_NoCI_EscapeVirtualNetworks.py(570): ingest_flat_map_list
  /home/min/a/green456/netsmith_icpp24/auto_top_gem5/configs/topologies/FS_NoCI_EscapeVirtualNetworks.py(108): makeTopology
  /home/min/a/green456/netsmith_icpp24/auto_top_gem5/configs/ruby/Ruby.py(224): create_system
  configs/netsmith/netsmith_parsec.py(218): build_test_system
  configs/netsmith/netsmith_parsec.py(518): <module>
  build/X86/python/m5/main.py(434): main
gem5 Simulator System.  https://www.gem5.org
gem5 is copyrighted software; use the --copyright option for details.

gem5 version 22.0.0.2
gem5 compiled Apr 28 2024 22:23:45
gem5 started Jun 14 2024 12:42:19
gem5 executing on mnemosyne.ecn.purdue.edu, pid 15006
command line: ./build/X86/gem5.fast -d ./parsec_results/noci_32GBxDDR4_2envs_38GHz_2MBl2_allthreads_64lwidth_sameflowpriority_lwbufadj/1000warmup_1000simul/blackscholes/butter_donut_x_noci_nndbt_picky_none/ configs/netsmith/netsmith_parsec.py -I 1000 --insts_after_warmup 1000 --benchmark_parsec blackscholes -r 1 --checkpoint-dir ./parsec_noci_checkpoints/roi_checkpoint/system_5/blackscholes --router_map_file ./topologies_and_routing/topo_maps/noci/butter_donut_x_noci.map --flat_vn_map_file topologies_and_routing/vn_maps/butter_donut_x_noci_nndbt_picky_none_2vns.vn --flat_nr_map_file topologies_and_routing/nr_lists/butter_donut_x_noci_nndbt_picky.nrl --topology FS_NoCI_EscapeVirtualNetworks --noi_routers 20 --noc_clk 3.8GHz --sys-clock 3.8GHz --cpu-clock 3.8GHz --ruby-clock 3.8GHz --noi_clk 2.7GHz --num-cpus 64 --mem_or_coh mem --num-dirs 32 --caches --num-l2caches 64 --l2_size 2MB --num_chiplets 4 --mem-size 32GB --ruby --network garnet --link-width-bits 64 --kernel /home/yara/mithuna2/green456/netsmith_autotop/auto_top_gem5/parsec_disk_image/vmlinux-5.4.49 --disk-image /home/yara/mithuna2/green456/netsmith_autotop/auto_top_gem5/parsec_disk_image/x86-parsec --cpu-type X86O3CPU --routing-algorithm 2 --use_escape_vns --vcs-per-vnet 10 --evn_n_deadlock_free 1 --evn_min_n_deadlock_free 2 --evn_deadlock_partition 8 --mem-type DDR4_2400_16x4

l1_caches(64)=[<m5.objects.L1Cache_Controller.L1Cache_Controller object at 0x7f47fe157e10>, <m5.objects.L1Cache_Controller.L1Cache_Controller object at 0x7f47fe15be80>, <m5.objects.L1Cache_Controller.L1Cache_Controller object at 0x7f47fe168e80>, <m5.objects.L1Cache_Controller.L1Cache_Controller object at 0x7f47fe171e80>, <m5.objects.L1Cache_Controller.L1Cache_Controller object at 0x7f47fe17ae80>, <m5.objects.L1Cache_Controller.L1Cache_Controller object at 0x7f47fe103e80>, <m5.objects.L1Cache_Controller.L1Cache_Controller object at 0x7f47fe10de80>, <m5.objects.L1Cache_Controller.L1Cache_Controller object at 0x7f47fe116e80>, <m5.objects.L1Cache_Controller.L1Cache_Controller object at 0x7f47fe11fe80>, <m5.objects.L1Cache_Controller.L1Cache_Controller object at 0x7f47fe127e80>, <m5.objects.L1Cache_Controller.L1Cache_Controller object at 0x7f47fe131e80>, <m5.objects.L1Cache_Controller.L1Cache_Controller object at 0x7f47fe139e80>, <m5.objects.L1Cache_Controller.L1Cache_Controller object at 0x7f47fe0c3e80>, <m5.objects.L1Cache_Controller.L1Cache_Controller object at 0x7f47fe0cbe80>, <m5.objects.L1Cache_Controller.L1Cache_Controller object at 0x7f47fe0d5e80>, <m5.objects.L1Cache_Controller.L1Cache_Controller object at 0x7f47fe0dee80>, <m5.objects.L1Cache_Controller.L1Cache_Controller object at 0x7f47fe0e7e80>, <m5.objects.L1Cache_Controller.L1Cache_Controller object at 0x7f47fe0f0e80>, <m5.objects.L1Cache_Controller.L1Cache_Controller object at 0x7f47fe0f9e80>, <m5.objects.L1Cache_Controller.L1Cache_Controller object at 0x7f47fe083e80>, <m5.objects.L1Cache_Controller.L1Cache_Controller object at 0x7f47fe08be80>, <m5.objects.L1Cache_Controller.L1Cache_Controller object at 0x7f47fe095e80>, <m5.objects.L1Cache_Controller.L1Cache_Controller object at 0x7f47fe09de80>, <m5.objects.L1Cache_Controller.L1Cache_Controller object at 0x7f47fe0a8e80>, <m5.objects.L1Cache_Controller.L1Cache_Controller object at 0x7f47fe0b0e80>, <m5.objects.L1Cache_Controller.L1Cache_Controller object at 0x7f47fe0b9e80>, <m5.objects.L1Cache_Controller.L1Cache_Controller object at 0x7f47fe042e80>, <m5.objects.L1Cache_Controller.L1Cache_Controller object at 0x7f47fe04ae80>, <m5.objects.L1Cache_Controller.L1Cache_Controller object at 0x7f47fe055e80>, <m5.objects.L1Cache_Controller.L1Cache_Controller object at 0x7f47fe05de80>, <m5.objects.L1Cache_Controller.L1Cache_Controller object at 0x7f47fe068e80>, <m5.objects.L1Cache_Controller.L1Cache_Controller object at 0x7f47fe070e80>, <m5.objects.L1Cache_Controller.L1Cache_Controller object at 0x7f47fe07ae80>, <m5.objects.L1Cache_Controller.L1Cache_Controller object at 0x7f47fe002e80>, <m5.objects.L1Cache_Controller.L1Cache_Controller object at 0x7f47fe00be80>, <m5.objects.L1Cache_Controller.L1Cache_Controller object at 0x7f47fe014e80>, <m5.objects.L1Cache_Controller.L1Cache_Controller object at 0x7f47fe01ce80>, <m5.objects.L1Cache_Controller.L1Cache_Controller object at 0x7f47fe026e80>, <m5.objects.L1Cache_Controller.L1Cache_Controller object at 0x7f47fe02ee80>, <m5.objects.L1Cache_Controller.L1Cache_Controller object at 0x7f47fe038e80>, <m5.objects.L1Cache_Controller.L1Cache_Controller object at 0x7f47fe040e80>, <m5.objects.L1Cache_Controller.L1Cache_Controller object at 0x7f47fdfcae80>, <m5.objects.L1Cache_Controller.L1Cache_Controller object at 0x7f47fdfd4e80>, <m5.objects.L1Cache_Controller.L1Cache_Controller object at 0x7f47fdfdde80>, <m5.objects.L1Cache_Controller.L1Cache_Controller object at 0x7f47fdfe6e80>, <m5.objects.L1Cache_Controller.L1Cache_Controller object at 0x7f47fdfefe80>, <m5.objects.L1Cache_Controller.L1Cache_Controller object at 0x7f47fdff8e80>, <m5.objects.L1Cache_Controller.L1Cache_Controller object at 0x7f47fe000e80>, <m5.objects.L1Cache_Controller.L1Cache_Controller object at 0x7f47fdf8ce80>, <m5.objects.L1Cache_Controller.L1Cache_Controller object at 0x7f47fdf94e80>, <m5.objects.L1Cache_Controller.L1Cache_Controller object at 0x7f47fdf9ee80>, <m5.objects.L1Cache_Controller.L1Cache_Controller object at 0x7f47fdfa6e80>, <m5.objects.L1Cache_Controller.L1Cache_Controller object at 0x7f47fdfafe80>, <m5.objects.L1Cache_Controller.L1Cache_Controller object at 0x7f47fdfb8e80>, <m5.objects.L1Cache_Controller.L1Cache_Controller object at 0x7f47fdf42e80>, <m5.objects.L1Cache_Controller.L1Cache_Controller object at 0x7f47fdf4be80>, <m5.objects.L1Cache_Controller.L1Cache_Controller object at 0x7f47fdf55e80>, <m5.objects.L1Cache_Controller.L1Cache_Controller object at 0x7f47fdf5ee80>, <m5.objects.L1Cache_Controller.L1Cache_Controller object at 0x7f47fdf67e80>, <m5.objects.L1Cache_Controller.L1Cache_Controller object at 0x7f47fdf6fe80>, <m5.objects.L1Cache_Controller.L1Cache_Controller object at 0x7f47fdf77e80>, <m5.objects.L1Cache_Controller.L1Cache_Controller object at 0x7f47fdf80e80>, <m5.objects.L1Cache_Controller.L1Cache_Controller object at 0x7f47fdf09e80>, <m5.objects.L1Cache_Controller.L1Cache_Controller object at 0x7f47fdf12e80>]

l2_caches(64)=[<m5.objects.L2Cache_Controller.L2Cache_Controller object at 0x7f47fdf1bb70>, <m5.objects.L2Cache_Controller.L2Cache_Controller object at 0x7f47fdf235f8>, <m5.objects.L2Cache_Controller.L2Cache_Controller object at 0x7f47fdf2d080>, <m5.objects.L2Cache_Controller.L2Cache_Controller object at 0x7f47fdf2dac8>, <m5.objects.L2Cache_Controller.L2Cache_Controller object at 0x7f47fdf35550>, <m5.objects.L2Cache_Controller.L2Cache_Controller object at 0x7f47fdf35f98>, <m5.objects.L2Cache_Controller.L2Cache_Controller object at 0x7f47fdf3fa20>, <m5.objects.L2Cache_Controller.L2Cache_Controller object at 0x7f47fdec84a8>, <m5.objects.L2Cache_Controller.L2Cache_Controller object at 0x7f47fdec8ef0>, <m5.objects.L2Cache_Controller.L2Cache_Controller object at 0x7f47fded1978>, <m5.objects.L2Cache_Controller.L2Cache_Controller object at 0x7f47fded9400>, <m5.objects.L2Cache_Controller.L2Cache_Controller object at 0x7f47fded9e48>, <m5.objects.L2Cache_Controller.L2Cache_Controller object at 0x7f47fdee18d0>, <m5.objects.L2Cache_Controller.L2Cache_Controller object at 0x7f47fdeeb358>, <m5.objects.L2Cache_Controller.L2Cache_Controller object at 0x7f47fdeebda0>, <m5.objects.L2Cache_Controller.L2Cache_Controller object at 0x7f47fdef4828>, <m5.objects.L2Cache_Controller.L2Cache_Controller object at 0x7f47fdefd2b0>, <m5.objects.L2Cache_Controller.L2Cache_Controller object at 0x7f47fdefdcf8>, <m5.objects.L2Cache_Controller.L2Cache_Controller object at 0x7f47fde86780>, <m5.objects.L2Cache_Controller.L2Cache_Controller object at 0x7f47fde8f208>, <m5.objects.L2Cache_Controller.L2Cache_Controller object at 0x7f47fde8fc50>, <m5.objects.L2Cache_Controller.L2Cache_Controller object at 0x7f47fde996d8>, <m5.objects.L2Cache_Controller.L2Cache_Controller object at 0x7f47fdea2160>, <m5.objects.L2Cache_Controller.L2Cache_Controller object at 0x7f47fdea2ba8>, <m5.objects.L2Cache_Controller.L2Cache_Controller object at 0x7f47fdeaa630>, <m5.objects.L2Cache_Controller.L2Cache_Controller object at 0x7f47fdeb40b8>, <m5.objects.L2Cache_Controller.L2Cache_Controller object at 0x7f47fdeb4b00>, <m5.objects.L2Cache_Controller.L2Cache_Controller object at 0x7f47fdebc588>, <m5.objects.L2Cache_Controller.L2Cache_Controller object at 0x7f47fdebcfd0>, <m5.objects.L2Cache_Controller.L2Cache_Controller object at 0x7f47fde45a58>, <m5.objects.L2Cache_Controller.L2Cache_Controller object at 0x7f47fde4f4e0>, <m5.objects.L2Cache_Controller.L2Cache_Controller object at 0x7f47fde4ff28>, <m5.objects.L2Cache_Controller.L2Cache_Controller object at 0x7f47fde579b0>, <m5.objects.L2Cache_Controller.L2Cache_Controller object at 0x7f47fde61438>, <m5.objects.L2Cache_Controller.L2Cache_Controller object at 0x7f47fde61e80>, <m5.objects.L2Cache_Controller.L2Cache_Controller object at 0x7f47fde6a908>, <m5.objects.L2Cache_Controller.L2Cache_Controller object at 0x7f47fde71390>, <m5.objects.L2Cache_Controller.L2Cache_Controller object at 0x7f47fde71dd8>, <m5.objects.L2Cache_Controller.L2Cache_Controller object at 0x7f47fde7b860>, <m5.objects.L2Cache_Controller.L2Cache_Controller object at 0x7f47fde042e8>, <m5.objects.L2Cache_Controller.L2Cache_Controller object at 0x7f47fde04d30>, <m5.objects.L2Cache_Controller.L2Cache_Controller object at 0x7f47fde0e7b8>, <m5.objects.L2Cache_Controller.L2Cache_Controller object at 0x7f47fde18240>, <m5.objects.L2Cache_Controller.L2Cache_Controller object at 0x7f47fde18c88>, <m5.objects.L2Cache_Controller.L2Cache_Controller object at 0x7f47fde20710>, <m5.objects.L2Cache_Controller.L2Cache_Controller object at 0x7f47fde29198>, <m5.objects.L2Cache_Controller.L2Cache_Controller object at 0x7f47fde29be0>, <m5.objects.L2Cache_Controller.L2Cache_Controller object at 0x7f47fde32668>, <m5.objects.L2Cache_Controller.L2Cache_Controller object at 0x7f47fde3a0f0>, <m5.objects.L2Cache_Controller.L2Cache_Controller object at 0x7f47fde3ab38>, <m5.objects.L2Cache_Controller.L2Cache_Controller object at 0x7f47fddc45c0>, <m5.objects.L2Cache_Controller.L2Cache_Controller object at 0x7f47fddcb048>, <m5.objects.L2Cache_Controller.L2Cache_Controller object at 0x7f47fddcba90>, <m5.objects.L2Cache_Controller.L2Cache_Controller object at 0x7f47fddd4518>, <m5.objects.L2Cache_Controller.L2Cache_Controller object at 0x7f47fddd4f60>, <m5.objects.L2Cache_Controller.L2Cache_Controller object at 0x7f47fdddf9e8>, <m5.objects.L2Cache_Controller.L2Cache_Controller object at 0x7f47fdde6470>, <m5.objects.L2Cache_Controller.L2Cache_Controller object at 0x7f47fdde6eb8>, <m5.objects.L2Cache_Controller.L2Cache_Controller object at 0x7f47fddf1940>, <m5.objects.L2Cache_Controller.L2Cache_Controller object at 0x7f47fddf93c8>, <m5.objects.L2Cache_Controller.L2Cache_Controller object at 0x7f47fddf9e10>, <m5.objects.L2Cache_Controller.L2Cache_Controller object at 0x7f47fdd82898>, <m5.objects.L2Cache_Controller.L2Cache_Controller object at 0x7f47fdd8b320>, <m5.objects.L2Cache_Controller.L2Cache_Controller object at 0x7f47fdd8bd68>]

dirs(32)=[<m5.objects.Directory_Controller.Directory_Controller object at 0x7f47fdd936d8>, <m5.objects.Directory_Controller.Directory_Controller object at 0x7f47fdd93908>, <m5.objects.Directory_Controller.Directory_Controller object at 0x7f47fdd93b38>, <m5.objects.Directory_Controller.Directory_Controller object at 0x7f47fdd93d68>, <m5.objects.Directory_Controller.Directory_Controller object at 0x7f47fdd93f98>, <m5.objects.Directory_Controller.Directory_Controller object at 0x7f47fdd9f208>, <m5.objects.Directory_Controller.Directory_Controller object at 0x7f47fdd9f438>, <m5.objects.Directory_Controller.Directory_Controller object at 0x7f47fdd9f668>, <m5.objects.Directory_Controller.Directory_Controller object at 0x7f47fdd9f898>, <m5.objects.Directory_Controller.Directory_Controller object at 0x7f47fdd9fac8>, <m5.objects.Directory_Controller.Directory_Controller object at 0x7f47fdd9fcf8>, <m5.objects.Directory_Controller.Directory_Controller object at 0x7f47fdd9ff28>, <m5.objects.Directory_Controller.Directory_Controller object at 0x7f47fddab198>, <m5.objects.Directory_Controller.Directory_Controller object at 0x7f47fddab3c8>, <m5.objects.Directory_Controller.Directory_Controller object at 0x7f47fddab5f8>, <m5.objects.Directory_Controller.Directory_Controller object at 0x7f47fddab828>, <m5.objects.Directory_Controller.Directory_Controller object at 0x7f47fddaba58>, <m5.objects.Directory_Controller.Directory_Controller object at 0x7f47fddabc88>, <m5.objects.Directory_Controller.Directory_Controller object at 0x7f47fddabeb8>, <m5.objects.Directory_Controller.Directory_Controller object at 0x7f47fddb3128>, <m5.objects.Directory_Controller.Directory_Controller object at 0x7f47fddb3358>, <m5.objects.Directory_Controller.Directory_Controller object at 0x7f47fddb3588>, <m5.objects.Directory_Controller.Directory_Controller object at 0x7f47fddb37b8>, <m5.objects.Directory_Controller.Directory_Controller object at 0x7f47fddb39e8>, <m5.objects.Directory_Controller.Directory_Controller object at 0x7f47fddb3c18>, <m5.objects.Directory_Controller.Directory_Controller object at 0x7f47fddb3e48>, <m5.objects.Directory_Controller.Directory_Controller object at 0x7f47fddc10b8>, <m5.objects.Directory_Controller.Directory_Controller object at 0x7f47fddc12e8>, <m5.objects.Directory_Controller.Directory_Controller object at 0x7f47fddc1518>, <m5.objects.Directory_Controller.Directory_Controller object at 0x7f47fddc1748>, <m5.objects.Directory_Controller.Directory_Controller object at 0x7f47fddc1978>, <m5.objects.Directory_Controller.Directory_Controller object at 0x7f47fddc1ba8>]

dmas(2)=[<m5.objects.DMA_Controller.DMA_Controller object at 0x7f47fdd25588>, <m5.objects.DMA_Controller.DMA_Controller object at 0x7f47fdd25ba8>]

others(0)=[]

ingesting topologies_and_routing/nr_lists/butter_donut_x_noci_nndbt_picky.nrl w/ # rotuers = 84
warn: Memory mode will be changed to atomic_noncaching
warn: Physical memory size specified is 32GB which is greater than 3GB.  Twice the number of memory controllers would be created.
