FileNotFoundError: [Errno 2] No such file or directory: 'topologies_and_routing/nr_lists/butter_donut_x_noci_nndbt_picky.nrl'

At:
  /home/min/a/green456/netsmith_icpp24/auto_top_gem5/configs/topologies/FS_NoCI_EscapeVirtualNetworks.py(570): ingest_flat_map_list
  /home/min/a/green456/netsmith_icpp24/auto_top_gem5/configs/topologies/FS_NoCI_EscapeVirtualNetworks.py(108): makeTopology
  /home/min/a/green456/netsmith_icpp24/auto_top_gem5/configs/ruby/Ruby.py(224): create_system
  configs/netsmith/netsmith_parsec.py(218): build_test_system
  configs/netsmith/netsmith_parsec.py(518): <module>
  build/X86/python/m5/main.py(434): main
gem5 Simulator System.  https://www.gem5.org
gem5 is copyrighted software; use the --copyright option for details.

gem5 version 22.0.0.2
gem5 compiled Apr 28 2024 22:23:45
gem5 started Jun 14 2024 12:58:17
gem5 executing on mnemosyne.ecn.purdue.edu, pid 17363
command line: ./build/X86/gem5.fast -d ./parsec_results/noci_32GBxDDR4_2envs_38GHz_2MBl2_allthreads_64lwidth_sameflowpriority_lwbufadj/1000warmup_1000simul/bodytrack/butter_donut_x_noci_nndbt_picky_none/ configs/netsmith/netsmith_parsec.py -I 1000 --insts_after_warmup 1000 --benchmark_parsec bodytrack -r 1 --checkpoint-dir ./parsec_noci_checkpoints/roi_checkpoint/system_5/bodytrack --router_map_file ./topologies_and_routing/topo_maps/noci/butter_donut_x_noci.map --flat_vn_map_file topologies_and_routing/vn_maps/butter_donut_x_noci_nndbt_picky_none_2vns.vn --flat_nr_map_file topologies_and_routing/nr_lists/butter_donut_x_noci_nndbt_picky.nrl --topology FS_NoCI_EscapeVirtualNetworks --noi_routers 20 --noc_clk 3.8GHz --sys-clock 3.8GHz --cpu-clock 3.8GHz --ruby-clock 3.8GHz --noi_clk 2.7GHz --num-cpus 64 --mem_or_coh mem --num-dirs 32 --caches --num-l2caches 64 --l2_size 2MB --num_chiplets 4 --mem-size 32GB --ruby --network garnet --link-width-bits 64 --kernel /home/yara/mithuna2/green456/netsmith_autotop/auto_top_gem5/parsec_disk_image/vmlinux-5.4.49 --disk-image /home/yara/mithuna2/green456/netsmith_autotop/auto_top_gem5/parsec_disk_image/x86-parsec --cpu-type X86O3CPU --routing-algorithm 2 --use_escape_vns --vcs-per-vnet 10 --evn_n_deadlock_free 1 --evn_min_n_deadlock_free 2 --evn_deadlock_partition 8 --mem-type DDR4_2400_16x4

l1_caches(64)=[<m5.objects.L1Cache_Controller.L1Cache_Controller object at 0x7feff1097e80>, <m5.objects.L1Cache_Controller.L1Cache_Controller object at 0x7feff109bef0>, <m5.objects.L1Cache_Controller.L1Cache_Controller object at 0x7feff10a8ef0>, <m5.objects.L1Cache_Controller.L1Cache_Controller object at 0x7feff10b1ef0>, <m5.objects.L1Cache_Controller.L1Cache_Controller object at 0x7feff10baef0>, <m5.objects.L1Cache_Controller.L1Cache_Controller object at 0x7feff1043ef0>, <m5.objects.L1Cache_Controller.L1Cache_Controller object at 0x7feff104cef0>, <m5.objects.L1Cache_Controller.L1Cache_Controller object at 0x7feff1056ef0>, <m5.objects.L1Cache_Controller.L1Cache_Controller object at 0x7feff105fef0>, <m5.objects.L1Cache_Controller.L1Cache_Controller object at 0x7feff1067ef0>, <m5.objects.L1Cache_Controller.L1Cache_Controller object at 0x7feff1071ef0>, <m5.objects.L1Cache_Controller.L1Cache_Controller object at 0x7feff1079ef0>, <m5.objects.L1Cache_Controller.L1Cache_Controller object at 0x7feff1003ef0>, <m5.objects.L1Cache_Controller.L1Cache_Controller object at 0x7feff100bef0>, <m5.objects.L1Cache_Controller.L1Cache_Controller object at 0x7feff1014ef0>, <m5.objects.L1Cache_Controller.L1Cache_Controller object at 0x7feff101eef0>, <m5.objects.L1Cache_Controller.L1Cache_Controller object at 0x7feff1027ef0>, <m5.objects.L1Cache_Controller.L1Cache_Controller object at 0x7feff1030ef0>, <m5.objects.L1Cache_Controller.L1Cache_Controller object at 0x7feff1038ef0>, <m5.objects.L1Cache_Controller.L1Cache_Controller object at 0x7feff0fc3ef0>, <m5.objects.L1Cache_Controller.L1Cache_Controller object at 0x7feff0fcbef0>, <m5.objects.L1Cache_Controller.L1Cache_Controller object at 0x7feff0fd5ef0>, <m5.objects.L1Cache_Controller.L1Cache_Controller object at 0x7feff0fddef0>, <m5.objects.L1Cache_Controller.L1Cache_Controller object at 0x7feff0fe8ef0>, <m5.objects.L1Cache_Controller.L1Cache_Controller object at 0x7feff0ff0ef0>, <m5.objects.L1Cache_Controller.L1Cache_Controller object at 0x7feff0ff9ef0>, <m5.objects.L1Cache_Controller.L1Cache_Controller object at 0x7feff0f82ef0>, <m5.objects.L1Cache_Controller.L1Cache_Controller object at 0x7feff0f8aef0>, <m5.objects.L1Cache_Controller.L1Cache_Controller object at 0x7feff0f94ef0>, <m5.objects.L1Cache_Controller.L1Cache_Controller object at 0x7feff0f9def0>, <m5.objects.L1Cache_Controller.L1Cache_Controller object at 0x7feff0fa7ef0>, <m5.objects.L1Cache_Controller.L1Cache_Controller object at 0x7feff0fb0ef0>, <m5.objects.L1Cache_Controller.L1Cache_Controller object at 0x7feff0fbaef0>, <m5.objects.L1Cache_Controller.L1Cache_Controller object at 0x7feff0f42ef0>, <m5.objects.L1Cache_Controller.L1Cache_Controller object at 0x7feff0f4bef0>, <m5.objects.L1Cache_Controller.L1Cache_Controller object at 0x7feff0f54ef0>, <m5.objects.L1Cache_Controller.L1Cache_Controller object at 0x7feff0f5cef0>, <m5.objects.L1Cache_Controller.L1Cache_Controller object at 0x7feff0f66ef0>, <m5.objects.L1Cache_Controller.L1Cache_Controller object at 0x7feff0f6eef0>, <m5.objects.L1Cache_Controller.L1Cache_Controller object at 0x7feff0f78ef0>, <m5.objects.L1Cache_Controller.L1Cache_Controller object at 0x7feff0f80ef0>, <m5.objects.L1Cache_Controller.L1Cache_Controller object at 0x7feff0f0aef0>, <m5.objects.L1Cache_Controller.L1Cache_Controller object at 0x7feff0f12ef0>, <m5.objects.L1Cache_Controller.L1Cache_Controller object at 0x7feff0f1def0>, <m5.objects.L1Cache_Controller.L1Cache_Controller object at 0x7feff0f26ef0>, <m5.objects.L1Cache_Controller.L1Cache_Controller object at 0x7feff0f2fef0>, <m5.objects.L1Cache_Controller.L1Cache_Controller object at 0x7feff0f38ef0>, <m5.objects.L1Cache_Controller.L1Cache_Controller object at 0x7feff0f41ef0>, <m5.objects.L1Cache_Controller.L1Cache_Controller object at 0x7feff0eccef0>, <m5.objects.L1Cache_Controller.L1Cache_Controller object at 0x7feff0ed4ef0>, <m5.objects.L1Cache_Controller.L1Cache_Controller object at 0x7feff0edeef0>, <m5.objects.L1Cache_Controller.L1Cache_Controller object at 0x7feff0ee6ef0>, <m5.objects.L1Cache_Controller.L1Cache_Controller object at 0x7feff0eefef0>, <m5.objects.L1Cache_Controller.L1Cache_Controller object at 0x7feff0ef8ef0>, <m5.objects.L1Cache_Controller.L1Cache_Controller object at 0x7feff0f01ef0>, <m5.objects.L1Cache_Controller.L1Cache_Controller object at 0x7feff0e8bef0>, <m5.objects.L1Cache_Controller.L1Cache_Controller object at 0x7feff0e94ef0>, <m5.objects.L1Cache_Controller.L1Cache_Controller object at 0x7feff0e9eef0>, <m5.objects.L1Cache_Controller.L1Cache_Controller object at 0x7feff0ea6ef0>, <m5.objects.L1Cache_Controller.L1Cache_Controller object at 0x7feff0eafef0>, <m5.objects.L1Cache_Controller.L1Cache_Controller object at 0x7feff0eb7ef0>, <m5.objects.L1Cache_Controller.L1Cache_Controller object at 0x7feff0ec0ef0>, <m5.objects.L1Cache_Controller.L1Cache_Controller object at 0x7feff0e49ef0>, <m5.objects.L1Cache_Controller.L1Cache_Controller object at 0x7feff0e52ef0>]

l2_caches(64)=[<m5.objects.L2Cache_Controller.L2Cache_Controller object at 0x7feff0e5bbe0>, <m5.objects.L2Cache_Controller.L2Cache_Controller object at 0x7feff0e63668>, <m5.objects.L2Cache_Controller.L2Cache_Controller object at 0x7feff0e6d0f0>, <m5.objects.L2Cache_Controller.L2Cache_Controller object at 0x7feff0e6db38>, <m5.objects.L2Cache_Controller.L2Cache_Controller object at 0x7feff0e755c0>, <m5.objects.L2Cache_Controller.L2Cache_Controller object at 0x7feff0e7f048>, <m5.objects.L2Cache_Controller.L2Cache_Controller object at 0x7feff0e7fa90>, <m5.objects.L2Cache_Controller.L2Cache_Controller object at 0x7feff0e07518>, <m5.objects.L2Cache_Controller.L2Cache_Controller object at 0x7feff0e07f60>, <m5.objects.L2Cache_Controller.L2Cache_Controller object at 0x7feff0e109e8>, <m5.objects.L2Cache_Controller.L2Cache_Controller object at 0x7feff0e19470>, <m5.objects.L2Cache_Controller.L2Cache_Controller object at 0x7feff0e19eb8>, <m5.objects.L2Cache_Controller.L2Cache_Controller object at 0x7feff0e21940>, <m5.objects.L2Cache_Controller.L2Cache_Controller object at 0x7feff0e2b3c8>, <m5.objects.L2Cache_Controller.L2Cache_Controller object at 0x7feff0e2be10>, <m5.objects.L2Cache_Controller.L2Cache_Controller object at 0x7feff0e34898>, <m5.objects.L2Cache_Controller.L2Cache_Controller object at 0x7feff0e3c320>, <m5.objects.L2Cache_Controller.L2Cache_Controller object at 0x7feff0e3cd68>, <m5.objects.L2Cache_Controller.L2Cache_Controller object at 0x7feff0dc67f0>, <m5.objects.L2Cache_Controller.L2Cache_Controller object at 0x7feff0dcf278>, <m5.objects.L2Cache_Controller.L2Cache_Controller object at 0x7feff0dcfcc0>, <m5.objects.L2Cache_Controller.L2Cache_Controller object at 0x7feff0dd9748>, <m5.objects.L2Cache_Controller.L2Cache_Controller object at 0x7feff0de21d0>, <m5.objects.L2Cache_Controller.L2Cache_Controller object at 0x7feff0de2c18>, <m5.objects.L2Cache_Controller.L2Cache_Controller object at 0x7feff0dea6a0>, <m5.objects.L2Cache_Controller.L2Cache_Controller object at 0x7feff0df4128>, <m5.objects.L2Cache_Controller.L2Cache_Controller object at 0x7feff0df4b70>, <m5.objects.L2Cache_Controller.L2Cache_Controller object at 0x7feff0dfc5f8>, <m5.objects.L2Cache_Controller.L2Cache_Controller object at 0x7feff0d85080>, <m5.objects.L2Cache_Controller.L2Cache_Controller object at 0x7feff0d85ac8>, <m5.objects.L2Cache_Controller.L2Cache_Controller object at 0x7feff0d8f550>, <m5.objects.L2Cache_Controller.L2Cache_Controller object at 0x7feff0d8ff98>, <m5.objects.L2Cache_Controller.L2Cache_Controller object at 0x7feff0d97a20>, <m5.objects.L2Cache_Controller.L2Cache_Controller object at 0x7feff0da14a8>, <m5.objects.L2Cache_Controller.L2Cache_Controller object at 0x7feff0da1ef0>, <m5.objects.L2Cache_Controller.L2Cache_Controller object at 0x7feff0daa978>, <m5.objects.L2Cache_Controller.L2Cache_Controller object at 0x7feff0db1400>, <m5.objects.L2Cache_Controller.L2Cache_Controller object at 0x7feff0db1e48>, <m5.objects.L2Cache_Controller.L2Cache_Controller object at 0x7feff0dbb8d0>, <m5.objects.L2Cache_Controller.L2Cache_Controller object at 0x7feff0d44358>, <m5.objects.L2Cache_Controller.L2Cache_Controller object at 0x7feff0d44da0>, <m5.objects.L2Cache_Controller.L2Cache_Controller object at 0x7feff0d4e828>, <m5.objects.L2Cache_Controller.L2Cache_Controller object at 0x7feff0d582b0>, <m5.objects.L2Cache_Controller.L2Cache_Controller object at 0x7feff0d58cf8>, <m5.objects.L2Cache_Controller.L2Cache_Controller object at 0x7feff0d5f780>, <m5.objects.L2Cache_Controller.L2Cache_Controller object at 0x7feff0d69208>, <m5.objects.L2Cache_Controller.L2Cache_Controller object at 0x7feff0d69c50>, <m5.objects.L2Cache_Controller.L2Cache_Controller object at 0x7feff0d716d8>, <m5.objects.L2Cache_Controller.L2Cache_Controller object at 0x7feff0d7a160>, <m5.objects.L2Cache_Controller.L2Cache_Controller object at 0x7feff0d7aba8>, <m5.objects.L2Cache_Controller.L2Cache_Controller object at 0x7feff0d03630>, <m5.objects.L2Cache_Controller.L2Cache_Controller object at 0x7feff0d0b0b8>, <m5.objects.L2Cache_Controller.L2Cache_Controller object at 0x7feff0d0bb00>, <m5.objects.L2Cache_Controller.L2Cache_Controller object at 0x7feff0d14588>, <m5.objects.L2Cache_Controller.L2Cache_Controller object at 0x7feff0d14fd0>, <m5.objects.L2Cache_Controller.L2Cache_Controller object at 0x7feff0d1ea58>, <m5.objects.L2Cache_Controller.L2Cache_Controller object at 0x7feff0d264e0>, <m5.objects.L2Cache_Controller.L2Cache_Controller object at 0x7feff0d26f28>, <m5.objects.L2Cache_Controller.L2Cache_Controller object at 0x7feff0d309b0>, <m5.objects.L2Cache_Controller.L2Cache_Controller object at 0x7feff0d3a438>, <m5.objects.L2Cache_Controller.L2Cache_Controller object at 0x7feff0d3ae80>, <m5.objects.L2Cache_Controller.L2Cache_Controller object at 0x7feff0cc2908>, <m5.objects.L2Cache_Controller.L2Cache_Controller object at 0x7feff0ccb390>, <m5.objects.L2Cache_Controller.L2Cache_Controller object at 0x7feff0ccbdd8>]

dirs(32)=[<m5.objects.Directory_Controller.Directory_Controller object at 0x7feff0cd3748>, <m5.objects.Directory_Controller.Directory_Controller object at 0x7feff0cd3978>, <m5.objects.Directory_Controller.Directory_Controller object at 0x7feff0cd3ba8>, <m5.objects.Directory_Controller.Directory_Controller object at 0x7feff0cd3dd8>, <m5.objects.Directory_Controller.Directory_Controller object at 0x7feff0cdf048>, <m5.objects.Directory_Controller.Directory_Controller object at 0x7feff0cdf278>, <m5.objects.Directory_Controller.Directory_Controller object at 0x7feff0cdf4a8>, <m5.objects.Directory_Controller.Directory_Controller object at 0x7feff0cdf6d8>, <m5.objects.Directory_Controller.Directory_Controller object at 0x7feff0cdf908>, <m5.objects.Directory_Controller.Directory_Controller object at 0x7feff0cdfb38>, <m5.objects.Directory_Controller.Directory_Controller object at 0x7feff0cdfd68>, <m5.objects.Directory_Controller.Directory_Controller object at 0x7feff0cdff98>, <m5.objects.Directory_Controller.Directory_Controller object at 0x7feff0ce9208>, <m5.objects.Directory_Controller.Directory_Controller object at 0x7feff0ce9438>, <m5.objects.Directory_Controller.Directory_Controller object at 0x7feff0ce9668>, <m5.objects.Directory_Controller.Directory_Controller object at 0x7feff0ce9898>, <m5.objects.Directory_Controller.Directory_Controller object at 0x7feff0ce9ac8>, <m5.objects.Directory_Controller.Directory_Controller object at 0x7feff0ce9cf8>, <m5.objects.Directory_Controller.Directory_Controller object at 0x7feff0ce9f28>, <m5.objects.Directory_Controller.Directory_Controller object at 0x7feff0cf5198>, <m5.objects.Directory_Controller.Directory_Controller object at 0x7feff0cf53c8>, <m5.objects.Directory_Controller.Directory_Controller object at 0x7feff0cf55f8>, <m5.objects.Directory_Controller.Directory_Controller object at 0x7feff0cf5828>, <m5.objects.Directory_Controller.Directory_Controller object at 0x7feff0cf5a58>, <m5.objects.Directory_Controller.Directory_Controller object at 0x7feff0cf5c88>, <m5.objects.Directory_Controller.Directory_Controller object at 0x7feff0cf5eb8>, <m5.objects.Directory_Controller.Directory_Controller object at 0x7feff0d01128>, <m5.objects.Directory_Controller.Directory_Controller object at 0x7feff0d01358>, <m5.objects.Directory_Controller.Directory_Controller object at 0x7feff0d01588>, <m5.objects.Directory_Controller.Directory_Controller object at 0x7feff0d017b8>, <m5.objects.Directory_Controller.Directory_Controller object at 0x7feff0d019e8>, <m5.objects.Directory_Controller.Directory_Controller object at 0x7feff0d01c18>]

dmas(2)=[<m5.objects.DMA_Controller.DMA_Controller object at 0x7feff0c655f8>, <m5.objects.DMA_Controller.DMA_Controller object at 0x7feff0c65c18>]

others(0)=[]

ingesting topologies_and_routing/nr_lists/butter_donut_x_noci_nndbt_picky.nrl w/ # rotuers = 84
warn: Memory mode will be changed to atomic_noncaching
warn: Physical memory size specified is 32GB which is greater than 3GB.  Twice the number of memory controllers would be created.
