FileNotFoundError: [Errno 2] No such file or directory: 'topologies_and_routing/nr_lists/kite_med_noci_nndbt_picky.nrl'

At:
  /home/min/a/green456/netsmith_icpp24/auto_top_gem5/configs/topologies/FS_NoCI_EscapeVirtualNetworks.py(570): ingest_flat_map_list
  /home/min/a/green456/netsmith_icpp24/auto_top_gem5/configs/topologies/FS_NoCI_EscapeVirtualNetworks.py(108): makeTopology
  /home/min/a/green456/netsmith_icpp24/auto_top_gem5/configs/ruby/Ruby.py(224): create_system
  configs/netsmith/netsmith_parsec.py(218): build_test_system
  configs/netsmith/netsmith_parsec.py(518): <module>
  build/X86/python/m5/main.py(434): main
gem5 Simulator System.  https://www.gem5.org
gem5 is copyrighted software; use the --copyright option for details.

gem5 version 22.0.0.2
gem5 compiled Apr 28 2024 22:23:45
gem5 started Jun 14 2024 12:54:15
gem5 executing on mnemosyne.ecn.purdue.edu, pid 16809
command line: ./build/X86/gem5.fast -d ./parsec_results/noci_32GBxDDR4_2envs_38GHz_2MBl2_allthreads_64lwidth_sameflowpriority_lwbufadj/1000warmup_1000simul/bodytrack/kite_med_noci_nndbt_picky_none/ configs/netsmith/netsmith_parsec.py -I 1000 --insts_after_warmup 1000 --benchmark_parsec bodytrack -r 1 --checkpoint-dir ./parsec_noci_checkpoints/roi_checkpoint/system_5/bodytrack --router_map_file ./topologies_and_routing/topo_maps/noci/kite_med_noci.map --flat_vn_map_file topologies_and_routing/vn_maps/kite_med_noci_nndbt_picky_none_2vns.vn --flat_nr_map_file topologies_and_routing/nr_lists/kite_med_noci_nndbt_picky.nrl --topology FS_NoCI_EscapeVirtualNetworks --noi_routers 20 --noc_clk 3.8GHz --sys-clock 3.8GHz --cpu-clock 3.8GHz --ruby-clock 3.8GHz --noi_clk 3.0GHz --num-cpus 64 --mem_or_coh mem --num-dirs 32 --caches --num-l2caches 64 --l2_size 2MB --num_chiplets 4 --mem-size 32GB --ruby --network garnet --link-width-bits 64 --kernel /home/yara/mithuna2/green456/netsmith_autotop/auto_top_gem5/parsec_disk_image/vmlinux-5.4.49 --disk-image /home/yara/mithuna2/green456/netsmith_autotop/auto_top_gem5/parsec_disk_image/x86-parsec --cpu-type X86O3CPU --routing-algorithm 2 --use_escape_vns --vcs-per-vnet 10 --evn_n_deadlock_free 1 --evn_min_n_deadlock_free 2 --evn_deadlock_partition 8 --mem-type DDR4_2400_16x4

l1_caches(64)=[<m5.objects.L1Cache_Controller.L1Cache_Controller object at 0x7ff2d1280e80>, <m5.objects.L1Cache_Controller.L1Cache_Controller object at 0x7ff2d1284ef0>, <m5.objects.L1Cache_Controller.L1Cache_Controller object at 0x7ff2d1290ef0>, <m5.objects.L1Cache_Controller.L1Cache_Controller object at 0x7ff2d1299ef0>, <m5.objects.L1Cache_Controller.L1Cache_Controller object at 0x7ff2d12a2ef0>, <m5.objects.L1Cache_Controller.L1Cache_Controller object at 0x7ff2d122bef0>, <m5.objects.L1Cache_Controller.L1Cache_Controller object at 0x7ff2d1235ef0>, <m5.objects.L1Cache_Controller.L1Cache_Controller object at 0x7ff2d123eef0>, <m5.objects.L1Cache_Controller.L1Cache_Controller object at 0x7ff2d1247ef0>, <m5.objects.L1Cache_Controller.L1Cache_Controller object at 0x7ff2d124fef0>, <m5.objects.L1Cache_Controller.L1Cache_Controller object at 0x7ff2d1259ef0>, <m5.objects.L1Cache_Controller.L1Cache_Controller object at 0x7ff2d1261ef0>, <m5.objects.L1Cache_Controller.L1Cache_Controller object at 0x7ff2d11ebef0>, <m5.objects.L1Cache_Controller.L1Cache_Controller object at 0x7ff2d11f3ef0>, <m5.objects.L1Cache_Controller.L1Cache_Controller object at 0x7ff2d11fcef0>, <m5.objects.L1Cache_Controller.L1Cache_Controller object at 0x7ff2d1206ef0>, <m5.objects.L1Cache_Controller.L1Cache_Controller object at 0x7ff2d120fef0>, <m5.objects.L1Cache_Controller.L1Cache_Controller object at 0x7ff2d1218ef0>, <m5.objects.L1Cache_Controller.L1Cache_Controller object at 0x7ff2d1221ef0>, <m5.objects.L1Cache_Controller.L1Cache_Controller object at 0x7ff2d11abef0>, <m5.objects.L1Cache_Controller.L1Cache_Controller object at 0x7ff2d11b3ef0>, <m5.objects.L1Cache_Controller.L1Cache_Controller object at 0x7ff2d11bdef0>, <m5.objects.L1Cache_Controller.L1Cache_Controller object at 0x7ff2d11c5ef0>, <m5.objects.L1Cache_Controller.L1Cache_Controller object at 0x7ff2d11d0ef0>, <m5.objects.L1Cache_Controller.L1Cache_Controller object at 0x7ff2d11d8ef0>, <m5.objects.L1Cache_Controller.L1Cache_Controller object at 0x7ff2d11e1ef0>, <m5.objects.L1Cache_Controller.L1Cache_Controller object at 0x7ff2d116aef0>, <m5.objects.L1Cache_Controller.L1Cache_Controller object at 0x7ff2d1172ef0>, <m5.objects.L1Cache_Controller.L1Cache_Controller object at 0x7ff2d117cef0>, <m5.objects.L1Cache_Controller.L1Cache_Controller object at 0x7ff2d1185ef0>, <m5.objects.L1Cache_Controller.L1Cache_Controller object at 0x7ff2d1190ef0>, <m5.objects.L1Cache_Controller.L1Cache_Controller object at 0x7ff2d1198ef0>, <m5.objects.L1Cache_Controller.L1Cache_Controller object at 0x7ff2d11a2ef0>, <m5.objects.L1Cache_Controller.L1Cache_Controller object at 0x7ff2d112aef0>, <m5.objects.L1Cache_Controller.L1Cache_Controller object at 0x7ff2d1133ef0>, <m5.objects.L1Cache_Controller.L1Cache_Controller object at 0x7ff2d113cef0>, <m5.objects.L1Cache_Controller.L1Cache_Controller object at 0x7ff2d1144ef0>, <m5.objects.L1Cache_Controller.L1Cache_Controller object at 0x7ff2d114eef0>, <m5.objects.L1Cache_Controller.L1Cache_Controller object at 0x7ff2d1156ef0>, <m5.objects.L1Cache_Controller.L1Cache_Controller object at 0x7ff2d1160ef0>, <m5.objects.L1Cache_Controller.L1Cache_Controller object at 0x7ff2d1168ef0>, <m5.objects.L1Cache_Controller.L1Cache_Controller object at 0x7ff2d10f2ef0>, <m5.objects.L1Cache_Controller.L1Cache_Controller object at 0x7ff2d10fbef0>, <m5.objects.L1Cache_Controller.L1Cache_Controller object at 0x7ff2d1105ef0>, <m5.objects.L1Cache_Controller.L1Cache_Controller object at 0x7ff2d110eef0>, <m5.objects.L1Cache_Controller.L1Cache_Controller object at 0x7ff2d1117ef0>, <m5.objects.L1Cache_Controller.L1Cache_Controller object at 0x7ff2d1121ef0>, <m5.objects.L1Cache_Controller.L1Cache_Controller object at 0x7ff2d1129ef0>, <m5.objects.L1Cache_Controller.L1Cache_Controller object at 0x7ff2d10b4ef0>, <m5.objects.L1Cache_Controller.L1Cache_Controller object at 0x7ff2d10bcef0>, <m5.objects.L1Cache_Controller.L1Cache_Controller object at 0x7ff2d10c6ef0>, <m5.objects.L1Cache_Controller.L1Cache_Controller object at 0x7ff2d10ceef0>, <m5.objects.L1Cache_Controller.L1Cache_Controller object at 0x7ff2d10d7ef0>, <m5.objects.L1Cache_Controller.L1Cache_Controller object at 0x7ff2d10e0ef0>, <m5.objects.L1Cache_Controller.L1Cache_Controller object at 0x7ff2d106aef0>, <m5.objects.L1Cache_Controller.L1Cache_Controller object at 0x7ff2d1073ef0>, <m5.objects.L1Cache_Controller.L1Cache_Controller object at 0x7ff2d107cef0>, <m5.objects.L1Cache_Controller.L1Cache_Controller object at 0x7ff2d1086ef0>, <m5.objects.L1Cache_Controller.L1Cache_Controller object at 0x7ff2d108eef0>, <m5.objects.L1Cache_Controller.L1Cache_Controller object at 0x7ff2d1097ef0>, <m5.objects.L1Cache_Controller.L1Cache_Controller object at 0x7ff2d109fef0>, <m5.objects.L1Cache_Controller.L1Cache_Controller object at 0x7ff2d10a8ef0>, <m5.objects.L1Cache_Controller.L1Cache_Controller object at 0x7ff2d1031ef0>, <m5.objects.L1Cache_Controller.L1Cache_Controller object at 0x7ff2d103aef0>]

l2_caches(64)=[<m5.objects.L2Cache_Controller.L2Cache_Controller object at 0x7ff2d1043be0>, <m5.objects.L2Cache_Controller.L2Cache_Controller object at 0x7ff2d104c668>, <m5.objects.L2Cache_Controller.L2Cache_Controller object at 0x7ff2d10560f0>, <m5.objects.L2Cache_Controller.L2Cache_Controller object at 0x7ff2d1056b38>, <m5.objects.L2Cache_Controller.L2Cache_Controller object at 0x7ff2d105e5c0>, <m5.objects.L2Cache_Controller.L2Cache_Controller object at 0x7ff2d1068048>, <m5.objects.L2Cache_Controller.L2Cache_Controller object at 0x7ff2d1068a90>, <m5.objects.L2Cache_Controller.L2Cache_Controller object at 0x7ff2d0ff1518>, <m5.objects.L2Cache_Controller.L2Cache_Controller object at 0x7ff2d0ff1f60>, <m5.objects.L2Cache_Controller.L2Cache_Controller object at 0x7ff2d0ff99e8>, <m5.objects.L2Cache_Controller.L2Cache_Controller object at 0x7ff2d1002470>, <m5.objects.L2Cache_Controller.L2Cache_Controller object at 0x7ff2d1002eb8>, <m5.objects.L2Cache_Controller.L2Cache_Controller object at 0x7ff2d100a940>, <m5.objects.L2Cache_Controller.L2Cache_Controller object at 0x7ff2d10143c8>, <m5.objects.L2Cache_Controller.L2Cache_Controller object at 0x7ff2d1014e10>, <m5.objects.L2Cache_Controller.L2Cache_Controller object at 0x7ff2d101d898>, <m5.objects.L2Cache_Controller.L2Cache_Controller object at 0x7ff2d1025320>, <m5.objects.L2Cache_Controller.L2Cache_Controller object at 0x7ff2d1025d68>, <m5.objects.L2Cache_Controller.L2Cache_Controller object at 0x7ff2d0faf7f0>, <m5.objects.L2Cache_Controller.L2Cache_Controller object at 0x7ff2d0fb8278>, <m5.objects.L2Cache_Controller.L2Cache_Controller object at 0x7ff2d0fb8cc0>, <m5.objects.L2Cache_Controller.L2Cache_Controller object at 0x7ff2d0fc2748>, <m5.objects.L2Cache_Controller.L2Cache_Controller object at 0x7ff2d0fcb1d0>, <m5.objects.L2Cache_Controller.L2Cache_Controller object at 0x7ff2d0fcbc18>, <m5.objects.L2Cache_Controller.L2Cache_Controller object at 0x7ff2d0fd36a0>, <m5.objects.L2Cache_Controller.L2Cache_Controller object at 0x7ff2d0fdd128>, <m5.objects.L2Cache_Controller.L2Cache_Controller object at 0x7ff2d0fddb70>, <m5.objects.L2Cache_Controller.L2Cache_Controller object at 0x7ff2d0fe55f8>, <m5.objects.L2Cache_Controller.L2Cache_Controller object at 0x7ff2d0f6e080>, <m5.objects.L2Cache_Controller.L2Cache_Controller object at 0x7ff2d0f6eac8>, <m5.objects.L2Cache_Controller.L2Cache_Controller object at 0x7ff2d0f78550>, <m5.objects.L2Cache_Controller.L2Cache_Controller object at 0x7ff2d0f78f98>, <m5.objects.L2Cache_Controller.L2Cache_Controller object at 0x7ff2d0f80a20>, <m5.objects.L2Cache_Controller.L2Cache_Controller object at 0x7ff2d0f8a4a8>, <m5.objects.L2Cache_Controller.L2Cache_Controller object at 0x7ff2d0f8aef0>, <m5.objects.L2Cache_Controller.L2Cache_Controller object at 0x7ff2d0f93978>, <m5.objects.L2Cache_Controller.L2Cache_Controller object at 0x7ff2d0f9a400>, <m5.objects.L2Cache_Controller.L2Cache_Controller object at 0x7ff2d0f9ae48>, <m5.objects.L2Cache_Controller.L2Cache_Controller object at 0x7ff2d0fa48d0>, <m5.objects.L2Cache_Controller.L2Cache_Controller object at 0x7ff2d0f2d358>, <m5.objects.L2Cache_Controller.L2Cache_Controller object at 0x7ff2d0f2dda0>, <m5.objects.L2Cache_Controller.L2Cache_Controller object at 0x7ff2d0f36828>, <m5.objects.L2Cache_Controller.L2Cache_Controller object at 0x7ff2d0f412b0>, <m5.objects.L2Cache_Controller.L2Cache_Controller object at 0x7ff2d0f41cf8>, <m5.objects.L2Cache_Controller.L2Cache_Controller object at 0x7ff2d0f48780>, <m5.objects.L2Cache_Controller.L2Cache_Controller object at 0x7ff2d0f52208>, <m5.objects.L2Cache_Controller.L2Cache_Controller object at 0x7ff2d0f52c50>, <m5.objects.L2Cache_Controller.L2Cache_Controller object at 0x7ff2d0f5a6d8>, <m5.objects.L2Cache_Controller.L2Cache_Controller object at 0x7ff2d0f63160>, <m5.objects.L2Cache_Controller.L2Cache_Controller object at 0x7ff2d0f63ba8>, <m5.objects.L2Cache_Controller.L2Cache_Controller object at 0x7ff2d0eec630>, <m5.objects.L2Cache_Controller.L2Cache_Controller object at 0x7ff2d0ef40b8>, <m5.objects.L2Cache_Controller.L2Cache_Controller object at 0x7ff2d0ef4b00>, <m5.objects.L2Cache_Controller.L2Cache_Controller object at 0x7ff2d0efc588>, <m5.objects.L2Cache_Controller.L2Cache_Controller object at 0x7ff2d0efcfd0>, <m5.objects.L2Cache_Controller.L2Cache_Controller object at 0x7ff2d0f07a58>, <m5.objects.L2Cache_Controller.L2Cache_Controller object at 0x7ff2d0f0f4e0>, <m5.objects.L2Cache_Controller.L2Cache_Controller object at 0x7ff2d0f0ff28>, <m5.objects.L2Cache_Controller.L2Cache_Controller object at 0x7ff2d0f199b0>, <m5.objects.L2Cache_Controller.L2Cache_Controller object at 0x7ff2d0f23438>, <m5.objects.L2Cache_Controller.L2Cache_Controller object at 0x7ff2d0f23e80>, <m5.objects.L2Cache_Controller.L2Cache_Controller object at 0x7ff2d0eab908>, <m5.objects.L2Cache_Controller.L2Cache_Controller object at 0x7ff2d0eb4390>, <m5.objects.L2Cache_Controller.L2Cache_Controller object at 0x7ff2d0eb4dd8>]

dirs(32)=[<m5.objects.Directory_Controller.Directory_Controller object at 0x7ff2d0ebc748>, <m5.objects.Directory_Controller.Directory_Controller object at 0x7ff2d0ebc978>, <m5.objects.Directory_Controller.Directory_Controller object at 0x7ff2d0ebcba8>, <m5.objects.Directory_Controller.Directory_Controller object at 0x7ff2d0ebcdd8>, <m5.objects.Directory_Controller.Directory_Controller object at 0x7ff2d0ec8048>, <m5.objects.Directory_Controller.Directory_Controller object at 0x7ff2d0ec8278>, <m5.objects.Directory_Controller.Directory_Controller object at 0x7ff2d0ec84a8>, <m5.objects.Directory_Controller.Directory_Controller object at 0x7ff2d0ec86d8>, <m5.objects.Directory_Controller.Directory_Controller object at 0x7ff2d0ec8908>, <m5.objects.Directory_Controller.Directory_Controller object at 0x7ff2d0ec8b38>, <m5.objects.Directory_Controller.Directory_Controller object at 0x7ff2d0ec8d68>, <m5.objects.Directory_Controller.Directory_Controller object at 0x7ff2d0ec8f98>, <m5.objects.Directory_Controller.Directory_Controller object at 0x7ff2d0ed2208>, <m5.objects.Directory_Controller.Directory_Controller object at 0x7ff2d0ed2438>, <m5.objects.Directory_Controller.Directory_Controller object at 0x7ff2d0ed2668>, <m5.objects.Directory_Controller.Directory_Controller object at 0x7ff2d0ed2898>, <m5.objects.Directory_Controller.Directory_Controller object at 0x7ff2d0ed2ac8>, <m5.objects.Directory_Controller.Directory_Controller object at 0x7ff2d0ed2cf8>, <m5.objects.Directory_Controller.Directory_Controller object at 0x7ff2d0ed2f28>, <m5.objects.Directory_Controller.Directory_Controller object at 0x7ff2d0edf198>, <m5.objects.Directory_Controller.Directory_Controller object at 0x7ff2d0edf3c8>, <m5.objects.Directory_Controller.Directory_Controller object at 0x7ff2d0edf5f8>, <m5.objects.Directory_Controller.Directory_Controller object at 0x7ff2d0edf828>, <m5.objects.Directory_Controller.Directory_Controller object at 0x7ff2d0edfa58>, <m5.objects.Directory_Controller.Directory_Controller object at 0x7ff2d0edfc88>, <m5.objects.Directory_Controller.Directory_Controller object at 0x7ff2d0edfeb8>, <m5.objects.Directory_Controller.Directory_Controller object at 0x7ff2d0e6a128>, <m5.objects.Directory_Controller.Directory_Controller object at 0x7ff2d0e6a358>, <m5.objects.Directory_Controller.Directory_Controller object at 0x7ff2d0e6a588>, <m5.objects.Directory_Controller.Directory_Controller object at 0x7ff2d0e6a7b8>, <m5.objects.Directory_Controller.Directory_Controller object at 0x7ff2d0e6a9e8>, <m5.objects.Directory_Controller.Directory_Controller object at 0x7ff2d0e6ac18>]

dmas(2)=[<m5.objects.DMA_Controller.DMA_Controller object at 0x7ff2d0e4f5f8>, <m5.objects.DMA_Controller.DMA_Controller object at 0x7ff2d0e4fc18>]

others(0)=[]

ingesting topologies_and_routing/nr_lists/kite_med_noci_nndbt_picky.nrl w/ # rotuers = 84
warn: Memory mode will be changed to atomic_noncaching
warn: Physical memory size specified is 32GB which is greater than 3GB.  Twice the number of memory controllers would be created.
