FileNotFoundError: [Errno 2] No such file or directory: 'topologies_and_routing/nr_lists/kite_med_noci_nndbt_picky.nrl'

At:
  /home/min/a/green456/netsmith_icpp24/auto_top_gem5/configs/topologies/FS_NoCI_EscapeVirtualNetworks.py(570): ingest_flat_map_list
  /home/min/a/green456/netsmith_icpp24/auto_top_gem5/configs/topologies/FS_NoCI_EscapeVirtualNetworks.py(108): makeTopology
  /home/min/a/green456/netsmith_icpp24/auto_top_gem5/configs/ruby/Ruby.py(224): create_system
  configs/netsmith/netsmith_parsec.py(218): build_test_system
  configs/netsmith/netsmith_parsec.py(518): <module>
  build/X86/python/m5/main.py(434): main
gem5 Simulator System.  https://www.gem5.org
gem5 is copyrighted software; use the --copyright option for details.

gem5 version 22.0.0.2
gem5 compiled Apr 28 2024 22:23:45
gem5 started Jun 14 2024 13:09:32
gem5 executing on mnemosyne.ecn.purdue.edu, pid 19746
command line: ./build/X86/gem5.fast -d ./parsec_results/noci_32GBxDDR4_2envs_38GHz_2MBl2_allthreads_64lwidth_sameflowpriority_lwbufadj/1000warmup_1000simul/canneal/kite_med_noci_nndbt_picky_none/ configs/netsmith/netsmith_parsec.py -I 1000 --insts_after_warmup 1000 --benchmark_parsec canneal -r 1 --checkpoint-dir ./parsec_noci_checkpoints/roi_checkpoint/system_5/canneal --router_map_file ./topologies_and_routing/topo_maps/noci/kite_med_noci.map --flat_vn_map_file topologies_and_routing/vn_maps/kite_med_noci_nndbt_picky_none_2vns.vn --flat_nr_map_file topologies_and_routing/nr_lists/kite_med_noci_nndbt_picky.nrl --topology FS_NoCI_EscapeVirtualNetworks --noi_routers 20 --noc_clk 3.8GHz --sys-clock 3.8GHz --cpu-clock 3.8GHz --ruby-clock 3.8GHz --noi_clk 3.0GHz --num-cpus 64 --mem_or_coh mem --num-dirs 32 --caches --num-l2caches 64 --l2_size 2MB --num_chiplets 4 --mem-size 32GB --ruby --network garnet --link-width-bits 64 --kernel /home/yara/mithuna2/green456/netsmith_autotop/auto_top_gem5/parsec_disk_image/vmlinux-5.4.49 --disk-image /home/yara/mithuna2/green456/netsmith_autotop/auto_top_gem5/parsec_disk_image/x86-parsec --cpu-type X86O3CPU --routing-algorithm 2 --use_escape_vns --vcs-per-vnet 10 --evn_n_deadlock_free 1 --evn_min_n_deadlock_free 2 --evn_deadlock_partition 8 --mem-type DDR4_2400_16x4

l1_caches(64)=[<m5.objects.L1Cache_Controller.L1Cache_Controller object at 0x7f25bf400eb8>, <m5.objects.L1Cache_Controller.L1Cache_Controller object at 0x7f25bf404f28>, <m5.objects.L1Cache_Controller.L1Cache_Controller object at 0x7f25bf410f28>, <m5.objects.L1Cache_Controller.L1Cache_Controller object at 0x7f25bf419f28>, <m5.objects.L1Cache_Controller.L1Cache_Controller object at 0x7f25bf422f28>, <m5.objects.L1Cache_Controller.L1Cache_Controller object at 0x7f25bf3abf28>, <m5.objects.L1Cache_Controller.L1Cache_Controller object at 0x7f25bf3b5f28>, <m5.objects.L1Cache_Controller.L1Cache_Controller object at 0x7f25bf3bef28>, <m5.objects.L1Cache_Controller.L1Cache_Controller object at 0x7f25bf3c7f28>, <m5.objects.L1Cache_Controller.L1Cache_Controller object at 0x7f25bf3cff28>, <m5.objects.L1Cache_Controller.L1Cache_Controller object at 0x7f25bf3d9f28>, <m5.objects.L1Cache_Controller.L1Cache_Controller object at 0x7f25bf3e1f28>, <m5.objects.L1Cache_Controller.L1Cache_Controller object at 0x7f25bf36bf28>, <m5.objects.L1Cache_Controller.L1Cache_Controller object at 0x7f25bf373f28>, <m5.objects.L1Cache_Controller.L1Cache_Controller object at 0x7f25bf37cf28>, <m5.objects.L1Cache_Controller.L1Cache_Controller object at 0x7f25bf386f28>, <m5.objects.L1Cache_Controller.L1Cache_Controller object at 0x7f25bf38ff28>, <m5.objects.L1Cache_Controller.L1Cache_Controller object at 0x7f25bf398f28>, <m5.objects.L1Cache_Controller.L1Cache_Controller object at 0x7f25bf3a1f28>, <m5.objects.L1Cache_Controller.L1Cache_Controller object at 0x7f25bf32bf28>, <m5.objects.L1Cache_Controller.L1Cache_Controller object at 0x7f25bf333f28>, <m5.objects.L1Cache_Controller.L1Cache_Controller object at 0x7f25bf33df28>, <m5.objects.L1Cache_Controller.L1Cache_Controller object at 0x7f25bf345f28>, <m5.objects.L1Cache_Controller.L1Cache_Controller object at 0x7f25bf34ff28>, <m5.objects.L1Cache_Controller.L1Cache_Controller object at 0x7f25bf358f28>, <m5.objects.L1Cache_Controller.L1Cache_Controller object at 0x7f25bf361f28>, <m5.objects.L1Cache_Controller.L1Cache_Controller object at 0x7f25bf2eaf28>, <m5.objects.L1Cache_Controller.L1Cache_Controller object at 0x7f25bf2f2f28>, <m5.objects.L1Cache_Controller.L1Cache_Controller object at 0x7f25bf2fcf28>, <m5.objects.L1Cache_Controller.L1Cache_Controller object at 0x7f25bf305f28>, <m5.objects.L1Cache_Controller.L1Cache_Controller object at 0x7f25bf310f28>, <m5.objects.L1Cache_Controller.L1Cache_Controller object at 0x7f25bf318f28>, <m5.objects.L1Cache_Controller.L1Cache_Controller object at 0x7f25bf322f28>, <m5.objects.L1Cache_Controller.L1Cache_Controller object at 0x7f25bf2aaf28>, <m5.objects.L1Cache_Controller.L1Cache_Controller object at 0x7f25bf2b3f28>, <m5.objects.L1Cache_Controller.L1Cache_Controller object at 0x7f25bf2bcf28>, <m5.objects.L1Cache_Controller.L1Cache_Controller object at 0x7f25bf2c4f28>, <m5.objects.L1Cache_Controller.L1Cache_Controller object at 0x7f25bf2cef28>, <m5.objects.L1Cache_Controller.L1Cache_Controller object at 0x7f25bf2d6f28>, <m5.objects.L1Cache_Controller.L1Cache_Controller object at 0x7f25bf2e0f28>, <m5.objects.L1Cache_Controller.L1Cache_Controller object at 0x7f25bf2e8f28>, <m5.objects.L1Cache_Controller.L1Cache_Controller object at 0x7f25bf272f28>, <m5.objects.L1Cache_Controller.L1Cache_Controller object at 0x7f25bf27bf28>, <m5.objects.L1Cache_Controller.L1Cache_Controller object at 0x7f25bf285f28>, <m5.objects.L1Cache_Controller.L1Cache_Controller object at 0x7f25bf28ef28>, <m5.objects.L1Cache_Controller.L1Cache_Controller object at 0x7f25bf297f28>, <m5.objects.L1Cache_Controller.L1Cache_Controller object at 0x7f25bf2a0f28>, <m5.objects.L1Cache_Controller.L1Cache_Controller object at 0x7f25bf2a9f28>, <m5.objects.L1Cache_Controller.L1Cache_Controller object at 0x7f25bf234f28>, <m5.objects.L1Cache_Controller.L1Cache_Controller object at 0x7f25bf23cf28>, <m5.objects.L1Cache_Controller.L1Cache_Controller object at 0x7f25bf246f28>, <m5.objects.L1Cache_Controller.L1Cache_Controller object at 0x7f25bf24ef28>, <m5.objects.L1Cache_Controller.L1Cache_Controller object at 0x7f25bf257f28>, <m5.objects.L1Cache_Controller.L1Cache_Controller object at 0x7f25bf260f28>, <m5.objects.L1Cache_Controller.L1Cache_Controller object at 0x7f25bf1eaf28>, <m5.objects.L1Cache_Controller.L1Cache_Controller object at 0x7f25bf1f3f28>, <m5.objects.L1Cache_Controller.L1Cache_Controller object at 0x7f25bf1fcf28>, <m5.objects.L1Cache_Controller.L1Cache_Controller object at 0x7f25bf206f28>, <m5.objects.L1Cache_Controller.L1Cache_Controller object at 0x7f25bf20ef28>, <m5.objects.L1Cache_Controller.L1Cache_Controller object at 0x7f25bf217f28>, <m5.objects.L1Cache_Controller.L1Cache_Controller object at 0x7f25bf21ff28>, <m5.objects.L1Cache_Controller.L1Cache_Controller object at 0x7f25bf228f28>, <m5.objects.L1Cache_Controller.L1Cache_Controller object at 0x7f25bf1b1f28>, <m5.objects.L1Cache_Controller.L1Cache_Controller object at 0x7f25bf1baf28>]

l2_caches(64)=[<m5.objects.L2Cache_Controller.L2Cache_Controller object at 0x7f25bf1c3c18>, <m5.objects.L2Cache_Controller.L2Cache_Controller object at 0x7f25bf1cc6a0>, <m5.objects.L2Cache_Controller.L2Cache_Controller object at 0x7f25bf1d6128>, <m5.objects.L2Cache_Controller.L2Cache_Controller object at 0x7f25bf1d6b70>, <m5.objects.L2Cache_Controller.L2Cache_Controller object at 0x7f25bf1de5f8>, <m5.objects.L2Cache_Controller.L2Cache_Controller object at 0x7f25bf1e8080>, <m5.objects.L2Cache_Controller.L2Cache_Controller object at 0x7f25bf1e8ac8>, <m5.objects.L2Cache_Controller.L2Cache_Controller object at 0x7f25bf170550>, <m5.objects.L2Cache_Controller.L2Cache_Controller object at 0x7f25bf170f98>, <m5.objects.L2Cache_Controller.L2Cache_Controller object at 0x7f25bf179a20>, <m5.objects.L2Cache_Controller.L2Cache_Controller object at 0x7f25bf1824a8>, <m5.objects.L2Cache_Controller.L2Cache_Controller object at 0x7f25bf182ef0>, <m5.objects.L2Cache_Controller.L2Cache_Controller object at 0x7f25bf18a978>, <m5.objects.L2Cache_Controller.L2Cache_Controller object at 0x7f25bf194400>, <m5.objects.L2Cache_Controller.L2Cache_Controller object at 0x7f25bf194e48>, <m5.objects.L2Cache_Controller.L2Cache_Controller object at 0x7f25bf19d8d0>, <m5.objects.L2Cache_Controller.L2Cache_Controller object at 0x7f25bf1a5358>, <m5.objects.L2Cache_Controller.L2Cache_Controller object at 0x7f25bf1a5da0>, <m5.objects.L2Cache_Controller.L2Cache_Controller object at 0x7f25bf12f828>, <m5.objects.L2Cache_Controller.L2Cache_Controller object at 0x7f25bf1382b0>, <m5.objects.L2Cache_Controller.L2Cache_Controller object at 0x7f25bf138cf8>, <m5.objects.L2Cache_Controller.L2Cache_Controller object at 0x7f25bf141780>, <m5.objects.L2Cache_Controller.L2Cache_Controller object at 0x7f25bf14b208>, <m5.objects.L2Cache_Controller.L2Cache_Controller object at 0x7f25bf14bc50>, <m5.objects.L2Cache_Controller.L2Cache_Controller object at 0x7f25bf1536d8>, <m5.objects.L2Cache_Controller.L2Cache_Controller object at 0x7f25bf15d160>, <m5.objects.L2Cache_Controller.L2Cache_Controller object at 0x7f25bf15dba8>, <m5.objects.L2Cache_Controller.L2Cache_Controller object at 0x7f25bf165630>, <m5.objects.L2Cache_Controller.L2Cache_Controller object at 0x7f25bf0ee0b8>, <m5.objects.L2Cache_Controller.L2Cache_Controller object at 0x7f25bf0eeb00>, <m5.objects.L2Cache_Controller.L2Cache_Controller object at 0x7f25bf0f8588>, <m5.objects.L2Cache_Controller.L2Cache_Controller object at 0x7f25bf0f8fd0>, <m5.objects.L2Cache_Controller.L2Cache_Controller object at 0x7f25bf100a58>, <m5.objects.L2Cache_Controller.L2Cache_Controller object at 0x7f25bf10a4e0>, <m5.objects.L2Cache_Controller.L2Cache_Controller object at 0x7f25bf10af28>, <m5.objects.L2Cache_Controller.L2Cache_Controller object at 0x7f25bf1139b0>, <m5.objects.L2Cache_Controller.L2Cache_Controller object at 0x7f25bf119438>, <m5.objects.L2Cache_Controller.L2Cache_Controller object at 0x7f25bf119e80>, <m5.objects.L2Cache_Controller.L2Cache_Controller object at 0x7f25bf124908>, <m5.objects.L2Cache_Controller.L2Cache_Controller object at 0x7f25bf0ad390>, <m5.objects.L2Cache_Controller.L2Cache_Controller object at 0x7f25bf0addd8>, <m5.objects.L2Cache_Controller.L2Cache_Controller object at 0x7f25bf0b6860>, <m5.objects.L2Cache_Controller.L2Cache_Controller object at 0x7f25bf0c02e8>, <m5.objects.L2Cache_Controller.L2Cache_Controller object at 0x7f25bf0c0d30>, <m5.objects.L2Cache_Controller.L2Cache_Controller object at 0x7f25bf0c77b8>, <m5.objects.L2Cache_Controller.L2Cache_Controller object at 0x7f25bf0d1240>, <m5.objects.L2Cache_Controller.L2Cache_Controller object at 0x7f25bf0d1c88>, <m5.objects.L2Cache_Controller.L2Cache_Controller object at 0x7f25bf0da710>, <m5.objects.L2Cache_Controller.L2Cache_Controller object at 0x7f25bf0e2198>, <m5.objects.L2Cache_Controller.L2Cache_Controller object at 0x7f25bf0e2be0>, <m5.objects.L2Cache_Controller.L2Cache_Controller object at 0x7f25bf06c668>, <m5.objects.L2Cache_Controller.L2Cache_Controller object at 0x7f25bf0740f0>, <m5.objects.L2Cache_Controller.L2Cache_Controller object at 0x7f25bf074b38>, <m5.objects.L2Cache_Controller.L2Cache_Controller object at 0x7f25bf07d5c0>, <m5.objects.L2Cache_Controller.L2Cache_Controller object at 0x7f25bf087048>, <m5.objects.L2Cache_Controller.L2Cache_Controller object at 0x7f25bf087a90>, <m5.objects.L2Cache_Controller.L2Cache_Controller object at 0x7f25bf08f518>, <m5.objects.L2Cache_Controller.L2Cache_Controller object at 0x7f25bf08ff60>, <m5.objects.L2Cache_Controller.L2Cache_Controller object at 0x7f25bf0999e8>, <m5.objects.L2Cache_Controller.L2Cache_Controller object at 0x7f25bf0a3470>, <m5.objects.L2Cache_Controller.L2Cache_Controller object at 0x7f25bf0a3eb8>, <m5.objects.L2Cache_Controller.L2Cache_Controller object at 0x7f25bf02b940>, <m5.objects.L2Cache_Controller.L2Cache_Controller object at 0x7f25bf0343c8>, <m5.objects.L2Cache_Controller.L2Cache_Controller object at 0x7f25bf034e10>]

dirs(32)=[<m5.objects.Directory_Controller.Directory_Controller object at 0x7f25bf03c780>, <m5.objects.Directory_Controller.Directory_Controller object at 0x7f25bf03c9b0>, <m5.objects.Directory_Controller.Directory_Controller object at 0x7f25bf03cbe0>, <m5.objects.Directory_Controller.Directory_Controller object at 0x7f25bf03ce10>, <m5.objects.Directory_Controller.Directory_Controller object at 0x7f25bf048080>, <m5.objects.Directory_Controller.Directory_Controller object at 0x7f25bf0482b0>, <m5.objects.Directory_Controller.Directory_Controller object at 0x7f25bf0484e0>, <m5.objects.Directory_Controller.Directory_Controller object at 0x7f25bf048710>, <m5.objects.Directory_Controller.Directory_Controller object at 0x7f25bf048940>, <m5.objects.Directory_Controller.Directory_Controller object at 0x7f25bf048b70>, <m5.objects.Directory_Controller.Directory_Controller object at 0x7f25bf048da0>, <m5.objects.Directory_Controller.Directory_Controller object at 0x7f25bf048fd0>, <m5.objects.Directory_Controller.Directory_Controller object at 0x7f25bf052240>, <m5.objects.Directory_Controller.Directory_Controller object at 0x7f25bf052470>, <m5.objects.Directory_Controller.Directory_Controller object at 0x7f25bf0526a0>, <m5.objects.Directory_Controller.Directory_Controller object at 0x7f25bf0528d0>, <m5.objects.Directory_Controller.Directory_Controller object at 0x7f25bf052b00>, <m5.objects.Directory_Controller.Directory_Controller object at 0x7f25bf052d30>, <m5.objects.Directory_Controller.Directory_Controller object at 0x7f25bf052f60>, <m5.objects.Directory_Controller.Directory_Controller object at 0x7f25bf05e1d0>, <m5.objects.Directory_Controller.Directory_Controller object at 0x7f25bf05e400>, <m5.objects.Directory_Controller.Directory_Controller object at 0x7f25bf05e630>, <m5.objects.Directory_Controller.Directory_Controller object at 0x7f25bf05e860>, <m5.objects.Directory_Controller.Directory_Controller object at 0x7f25bf05ea90>, <m5.objects.Directory_Controller.Directory_Controller object at 0x7f25bf05ecc0>, <m5.objects.Directory_Controller.Directory_Controller object at 0x7f25bf05eef0>, <m5.objects.Directory_Controller.Directory_Controller object at 0x7f25befea160>, <m5.objects.Directory_Controller.Directory_Controller object at 0x7f25befea390>, <m5.objects.Directory_Controller.Directory_Controller object at 0x7f25befea5c0>, <m5.objects.Directory_Controller.Directory_Controller object at 0x7f25befea7f0>, <m5.objects.Directory_Controller.Directory_Controller object at 0x7f25befeaa20>, <m5.objects.Directory_Controller.Directory_Controller object at 0x7f25befeac50>]

dmas(2)=[<m5.objects.DMA_Controller.DMA_Controller object at 0x7f25befcf630>, <m5.objects.DMA_Controller.DMA_Controller object at 0x7f25befcfc50>]

others(0)=[]

ingesting topologies_and_routing/nr_lists/kite_med_noci_nndbt_picky.nrl w/ # rotuers = 84
warn: Memory mode will be changed to atomic_noncaching
warn: Physical memory size specified is 32GB which is greater than 3GB.  Twice the number of memory controllers would be created.
