FileNotFoundError: [Errno 2] No such file or directory: 'topologies_and_routing/nr_lists/dbl_bfly_x_noci_nndbt_picky.nrl'

At:
  /home/min/a/green456/netsmith_icpp24/auto_top_gem5/configs/topologies/FS_NoCI_EscapeVirtualNetworks.py(570): ingest_flat_map_list
  /home/min/a/green456/netsmith_icpp24/auto_top_gem5/configs/topologies/FS_NoCI_EscapeVirtualNetworks.py(108): makeTopology
  /home/min/a/green456/netsmith_icpp24/auto_top_gem5/configs/ruby/Ruby.py(224): create_system
  configs/netsmith/netsmith_parsec.py(218): build_test_system
  configs/netsmith/netsmith_parsec.py(518): <module>
  build/X86/python/m5/main.py(434): main
gem5 Simulator System.  https://www.gem5.org
gem5 is copyrighted software; use the --copyright option for details.

gem5 version 22.0.0.2
gem5 compiled Apr 28 2024 22:23:45
gem5 started Jun 14 2024 13:13:20
gem5 executing on mnemosyne.ecn.purdue.edu, pid 21231
command line: ./build/X86/gem5.fast -d ./parsec_results/noci_32GBxDDR4_2envs_38GHz_2MBl2_allthreads_64lwidth_sameflowpriority_lwbufadj/1000warmup_1000simul/canneal/dbl_bfly_x_noci_nndbt_picky_none/ configs/netsmith/netsmith_parsec.py -I 1000 --insts_after_warmup 1000 --benchmark_parsec canneal -r 1 --checkpoint-dir ./parsec_noci_checkpoints/roi_checkpoint/system_5/canneal --router_map_file ./topologies_and_routing/topo_maps/noci/dbl_bfly_x_noci.map --flat_vn_map_file topologies_and_routing/vn_maps/dbl_bfly_x_noci_nndbt_picky_none_2vns.vn --flat_nr_map_file topologies_and_routing/nr_lists/dbl_bfly_x_noci_nndbt_picky.nrl --topology FS_NoCI_EscapeVirtualNetworks --noi_routers 20 --noc_clk 3.8GHz --sys-clock 3.8GHz --cpu-clock 3.8GHz --ruby-clock 3.8GHz --noi_clk 2.7GHz --num-cpus 64 --mem_or_coh mem --num-dirs 32 --caches --num-l2caches 64 --l2_size 2MB --num_chiplets 4 --mem-size 32GB --ruby --network garnet --link-width-bits 64 --kernel /home/yara/mithuna2/green456/netsmith_autotop/auto_top_gem5/parsec_disk_image/vmlinux-5.4.49 --disk-image /home/yara/mithuna2/green456/netsmith_autotop/auto_top_gem5/parsec_disk_image/x86-parsec --cpu-type X86O3CPU --routing-algorithm 2 --use_escape_vns --vcs-per-vnet 10 --evn_n_deadlock_free 1 --evn_min_n_deadlock_free 2 --evn_deadlock_partition 8 --mem-type DDR4_2400_16x4

l1_caches(64)=[<m5.objects.L1Cache_Controller.L1Cache_Controller object at 0x7f01bc990eb8>, <m5.objects.L1Cache_Controller.L1Cache_Controller object at 0x7f01bc994f28>, <m5.objects.L1Cache_Controller.L1Cache_Controller object at 0x7f01bc9a0f28>, <m5.objects.L1Cache_Controller.L1Cache_Controller object at 0x7f01bc9aaf28>, <m5.objects.L1Cache_Controller.L1Cache_Controller object at 0x7f01bc9b2f28>, <m5.objects.L1Cache_Controller.L1Cache_Controller object at 0x7f01bc93bf28>, <m5.objects.L1Cache_Controller.L1Cache_Controller object at 0x7f01bc945f28>, <m5.objects.L1Cache_Controller.L1Cache_Controller object at 0x7f01bc94ef28>, <m5.objects.L1Cache_Controller.L1Cache_Controller object at 0x7f01bc957f28>, <m5.objects.L1Cache_Controller.L1Cache_Controller object at 0x7f01bc95ff28>, <m5.objects.L1Cache_Controller.L1Cache_Controller object at 0x7f01bc969f28>, <m5.objects.L1Cache_Controller.L1Cache_Controller object at 0x7f01bc971f28>, <m5.objects.L1Cache_Controller.L1Cache_Controller object at 0x7f01bc8fbf28>, <m5.objects.L1Cache_Controller.L1Cache_Controller object at 0x7f01bc903f28>, <m5.objects.L1Cache_Controller.L1Cache_Controller object at 0x7f01bc90df28>, <m5.objects.L1Cache_Controller.L1Cache_Controller object at 0x7f01bc916f28>, <m5.objects.L1Cache_Controller.L1Cache_Controller object at 0x7f01bc91ff28>, <m5.objects.L1Cache_Controller.L1Cache_Controller object at 0x7f01bc928f28>, <m5.objects.L1Cache_Controller.L1Cache_Controller object at 0x7f01bc931f28>, <m5.objects.L1Cache_Controller.L1Cache_Controller object at 0x7f01bc8bbf28>, <m5.objects.L1Cache_Controller.L1Cache_Controller object at 0x7f01bc8c3f28>, <m5.objects.L1Cache_Controller.L1Cache_Controller object at 0x7f01bc8cdf28>, <m5.objects.L1Cache_Controller.L1Cache_Controller object at 0x7f01bc8d5f28>, <m5.objects.L1Cache_Controller.L1Cache_Controller object at 0x7f01bc8dff28>, <m5.objects.L1Cache_Controller.L1Cache_Controller object at 0x7f01bc8e8f28>, <m5.objects.L1Cache_Controller.L1Cache_Controller object at 0x7f01bc8f2f28>, <m5.objects.L1Cache_Controller.L1Cache_Controller object at 0x7f01bc87af28>, <m5.objects.L1Cache_Controller.L1Cache_Controller object at 0x7f01bc882f28>, <m5.objects.L1Cache_Controller.L1Cache_Controller object at 0x7f01bc88cf28>, <m5.objects.L1Cache_Controller.L1Cache_Controller object at 0x7f01bc895f28>, <m5.objects.L1Cache_Controller.L1Cache_Controller object at 0x7f01bc8a0f28>, <m5.objects.L1Cache_Controller.L1Cache_Controller object at 0x7f01bc8a8f28>, <m5.objects.L1Cache_Controller.L1Cache_Controller object at 0x7f01bc8b2f28>, <m5.objects.L1Cache_Controller.L1Cache_Controller object at 0x7f01bc83af28>, <m5.objects.L1Cache_Controller.L1Cache_Controller object at 0x7f01bc843f28>, <m5.objects.L1Cache_Controller.L1Cache_Controller object at 0x7f01bc84cf28>, <m5.objects.L1Cache_Controller.L1Cache_Controller object at 0x7f01bc855f28>, <m5.objects.L1Cache_Controller.L1Cache_Controller object at 0x7f01bc85ef28>, <m5.objects.L1Cache_Controller.L1Cache_Controller object at 0x7f01bc866f28>, <m5.objects.L1Cache_Controller.L1Cache_Controller object at 0x7f01bc870f28>, <m5.objects.L1Cache_Controller.L1Cache_Controller object at 0x7f01bc878f28>, <m5.objects.L1Cache_Controller.L1Cache_Controller object at 0x7f01bc802f28>, <m5.objects.L1Cache_Controller.L1Cache_Controller object at 0x7f01bc80bf28>, <m5.objects.L1Cache_Controller.L1Cache_Controller object at 0x7f01bc815f28>, <m5.objects.L1Cache_Controller.L1Cache_Controller object at 0x7f01bc81ef28>, <m5.objects.L1Cache_Controller.L1Cache_Controller object at 0x7f01bc827f28>, <m5.objects.L1Cache_Controller.L1Cache_Controller object at 0x7f01bc830f28>, <m5.objects.L1Cache_Controller.L1Cache_Controller object at 0x7f01bc839f28>, <m5.objects.L1Cache_Controller.L1Cache_Controller object at 0x7f01bc7c3f28>, <m5.objects.L1Cache_Controller.L1Cache_Controller object at 0x7f01bc7cbf28>, <m5.objects.L1Cache_Controller.L1Cache_Controller object at 0x7f01bc7d5f28>, <m5.objects.L1Cache_Controller.L1Cache_Controller object at 0x7f01bc7def28>, <m5.objects.L1Cache_Controller.L1Cache_Controller object at 0x7f01bc7e7f28>, <m5.objects.L1Cache_Controller.L1Cache_Controller object at 0x7f01bc7f0f28>, <m5.objects.L1Cache_Controller.L1Cache_Controller object at 0x7f01bc77af28>, <m5.objects.L1Cache_Controller.L1Cache_Controller object at 0x7f01bc783f28>, <m5.objects.L1Cache_Controller.L1Cache_Controller object at 0x7f01bc78cf28>, <m5.objects.L1Cache_Controller.L1Cache_Controller object at 0x7f01bc796f28>, <m5.objects.L1Cache_Controller.L1Cache_Controller object at 0x7f01bc79ff28>, <m5.objects.L1Cache_Controller.L1Cache_Controller object at 0x7f01bc7a7f28>, <m5.objects.L1Cache_Controller.L1Cache_Controller object at 0x7f01bc7aff28>, <m5.objects.L1Cache_Controller.L1Cache_Controller object at 0x7f01bc7b8f28>, <m5.objects.L1Cache_Controller.L1Cache_Controller object at 0x7f01bc741f28>, <m5.objects.L1Cache_Controller.L1Cache_Controller object at 0x7f01bc74af28>]

l2_caches(64)=[<m5.objects.L2Cache_Controller.L2Cache_Controller object at 0x7f01bc753c18>, <m5.objects.L2Cache_Controller.L2Cache_Controller object at 0x7f01bc75c6a0>, <m5.objects.L2Cache_Controller.L2Cache_Controller object at 0x7f01bc766128>, <m5.objects.L2Cache_Controller.L2Cache_Controller object at 0x7f01bc766b70>, <m5.objects.L2Cache_Controller.L2Cache_Controller object at 0x7f01bc76e5f8>, <m5.objects.L2Cache_Controller.L2Cache_Controller object at 0x7f01bc778080>, <m5.objects.L2Cache_Controller.L2Cache_Controller object at 0x7f01bc778ac8>, <m5.objects.L2Cache_Controller.L2Cache_Controller object at 0x7f01bc700550>, <m5.objects.L2Cache_Controller.L2Cache_Controller object at 0x7f01bc700f98>, <m5.objects.L2Cache_Controller.L2Cache_Controller object at 0x7f01bc709a20>, <m5.objects.L2Cache_Controller.L2Cache_Controller object at 0x7f01bc7124a8>, <m5.objects.L2Cache_Controller.L2Cache_Controller object at 0x7f01bc712ef0>, <m5.objects.L2Cache_Controller.L2Cache_Controller object at 0x7f01bc71a978>, <m5.objects.L2Cache_Controller.L2Cache_Controller object at 0x7f01bc724400>, <m5.objects.L2Cache_Controller.L2Cache_Controller object at 0x7f01bc724e48>, <m5.objects.L2Cache_Controller.L2Cache_Controller object at 0x7f01bc72d8d0>, <m5.objects.L2Cache_Controller.L2Cache_Controller object at 0x7f01bc735358>, <m5.objects.L2Cache_Controller.L2Cache_Controller object at 0x7f01bc735da0>, <m5.objects.L2Cache_Controller.L2Cache_Controller object at 0x7f01bc6bf828>, <m5.objects.L2Cache_Controller.L2Cache_Controller object at 0x7f01bc6c82b0>, <m5.objects.L2Cache_Controller.L2Cache_Controller object at 0x7f01bc6c8cf8>, <m5.objects.L2Cache_Controller.L2Cache_Controller object at 0x7f01bc6d1780>, <m5.objects.L2Cache_Controller.L2Cache_Controller object at 0x7f01bc6db208>, <m5.objects.L2Cache_Controller.L2Cache_Controller object at 0x7f01bc6dbc50>, <m5.objects.L2Cache_Controller.L2Cache_Controller object at 0x7f01bc6e36d8>, <m5.objects.L2Cache_Controller.L2Cache_Controller object at 0x7f01bc6ed160>, <m5.objects.L2Cache_Controller.L2Cache_Controller object at 0x7f01bc6edba8>, <m5.objects.L2Cache_Controller.L2Cache_Controller object at 0x7f01bc6f5630>, <m5.objects.L2Cache_Controller.L2Cache_Controller object at 0x7f01bc67f0b8>, <m5.objects.L2Cache_Controller.L2Cache_Controller object at 0x7f01bc67fb00>, <m5.objects.L2Cache_Controller.L2Cache_Controller object at 0x7f01bc688588>, <m5.objects.L2Cache_Controller.L2Cache_Controller object at 0x7f01bc688fd0>, <m5.objects.L2Cache_Controller.L2Cache_Controller object at 0x7f01bc690a58>, <m5.objects.L2Cache_Controller.L2Cache_Controller object at 0x7f01bc69a4e0>, <m5.objects.L2Cache_Controller.L2Cache_Controller object at 0x7f01bc69af28>, <m5.objects.L2Cache_Controller.L2Cache_Controller object at 0x7f01bc6a39b0>, <m5.objects.L2Cache_Controller.L2Cache_Controller object at 0x7f01bc6a9438>, <m5.objects.L2Cache_Controller.L2Cache_Controller object at 0x7f01bc6a9e80>, <m5.objects.L2Cache_Controller.L2Cache_Controller object at 0x7f01bc6b4908>, <m5.objects.L2Cache_Controller.L2Cache_Controller object at 0x7f01bc63c390>, <m5.objects.L2Cache_Controller.L2Cache_Controller object at 0x7f01bc63cdd8>, <m5.objects.L2Cache_Controller.L2Cache_Controller object at 0x7f01bc645860>, <m5.objects.L2Cache_Controller.L2Cache_Controller object at 0x7f01bc6502e8>, <m5.objects.L2Cache_Controller.L2Cache_Controller object at 0x7f01bc650d30>, <m5.objects.L2Cache_Controller.L2Cache_Controller object at 0x7f01bc6577b8>, <m5.objects.L2Cache_Controller.L2Cache_Controller object at 0x7f01bc661240>, <m5.objects.L2Cache_Controller.L2Cache_Controller object at 0x7f01bc661c88>, <m5.objects.L2Cache_Controller.L2Cache_Controller object at 0x7f01bc66a710>, <m5.objects.L2Cache_Controller.L2Cache_Controller object at 0x7f01bc672198>, <m5.objects.L2Cache_Controller.L2Cache_Controller object at 0x7f01bc672be0>, <m5.objects.L2Cache_Controller.L2Cache_Controller object at 0x7f01bc5fc668>, <m5.objects.L2Cache_Controller.L2Cache_Controller object at 0x7f01bc6040f0>, <m5.objects.L2Cache_Controller.L2Cache_Controller object at 0x7f01bc604b38>, <m5.objects.L2Cache_Controller.L2Cache_Controller object at 0x7f01bc60d5c0>, <m5.objects.L2Cache_Controller.L2Cache_Controller object at 0x7f01bc617048>, <m5.objects.L2Cache_Controller.L2Cache_Controller object at 0x7f01bc617a90>, <m5.objects.L2Cache_Controller.L2Cache_Controller object at 0x7f01bc61f518>, <m5.objects.L2Cache_Controller.L2Cache_Controller object at 0x7f01bc61ff60>, <m5.objects.L2Cache_Controller.L2Cache_Controller object at 0x7f01bc6299e8>, <m5.objects.L2Cache_Controller.L2Cache_Controller object at 0x7f01bc632470>, <m5.objects.L2Cache_Controller.L2Cache_Controller object at 0x7f01bc632eb8>, <m5.objects.L2Cache_Controller.L2Cache_Controller object at 0x7f01bc5bc940>, <m5.objects.L2Cache_Controller.L2Cache_Controller object at 0x7f01bc5c43c8>, <m5.objects.L2Cache_Controller.L2Cache_Controller object at 0x7f01bc5c4e10>]

dirs(32)=[<m5.objects.Directory_Controller.Directory_Controller object at 0x7f01bc5cc780>, <m5.objects.Directory_Controller.Directory_Controller object at 0x7f01bc5cc9b0>, <m5.objects.Directory_Controller.Directory_Controller object at 0x7f01bc5ccbe0>, <m5.objects.Directory_Controller.Directory_Controller object at 0x7f01bc5cce10>, <m5.objects.Directory_Controller.Directory_Controller object at 0x7f01bc5d8080>, <m5.objects.Directory_Controller.Directory_Controller object at 0x7f01bc5d82b0>, <m5.objects.Directory_Controller.Directory_Controller object at 0x7f01bc5d84e0>, <m5.objects.Directory_Controller.Directory_Controller object at 0x7f01bc5d8710>, <m5.objects.Directory_Controller.Directory_Controller object at 0x7f01bc5d8940>, <m5.objects.Directory_Controller.Directory_Controller object at 0x7f01bc5d8b70>, <m5.objects.Directory_Controller.Directory_Controller object at 0x7f01bc5d8da0>, <m5.objects.Directory_Controller.Directory_Controller object at 0x7f01bc5d8fd0>, <m5.objects.Directory_Controller.Directory_Controller object at 0x7f01bc5e2240>, <m5.objects.Directory_Controller.Directory_Controller object at 0x7f01bc5e2470>, <m5.objects.Directory_Controller.Directory_Controller object at 0x7f01bc5e26a0>, <m5.objects.Directory_Controller.Directory_Controller object at 0x7f01bc5e28d0>, <m5.objects.Directory_Controller.Directory_Controller object at 0x7f01bc5e2b00>, <m5.objects.Directory_Controller.Directory_Controller object at 0x7f01bc5e2d30>, <m5.objects.Directory_Controller.Directory_Controller object at 0x7f01bc5e2f60>, <m5.objects.Directory_Controller.Directory_Controller object at 0x7f01bc5ee1d0>, <m5.objects.Directory_Controller.Directory_Controller object at 0x7f01bc5ee400>, <m5.objects.Directory_Controller.Directory_Controller object at 0x7f01bc5ee630>, <m5.objects.Directory_Controller.Directory_Controller object at 0x7f01bc5ee860>, <m5.objects.Directory_Controller.Directory_Controller object at 0x7f01bc5eea90>, <m5.objects.Directory_Controller.Directory_Controller object at 0x7f01bc5eecc0>, <m5.objects.Directory_Controller.Directory_Controller object at 0x7f01bc5eeef0>, <m5.objects.Directory_Controller.Directory_Controller object at 0x7f01bc57a160>, <m5.objects.Directory_Controller.Directory_Controller object at 0x7f01bc57a390>, <m5.objects.Directory_Controller.Directory_Controller object at 0x7f01bc57a5c0>, <m5.objects.Directory_Controller.Directory_Controller object at 0x7f01bc57a7f0>, <m5.objects.Directory_Controller.Directory_Controller object at 0x7f01bc57aa20>, <m5.objects.Directory_Controller.Directory_Controller object at 0x7f01bc57ac50>]

dmas(2)=[<m5.objects.DMA_Controller.DMA_Controller object at 0x7f01bc55e630>, <m5.objects.DMA_Controller.DMA_Controller object at 0x7f01bc55ec50>]

others(0)=[]

ingesting topologies_and_routing/nr_lists/dbl_bfly_x_noci_nndbt_picky.nrl w/ # rotuers = 84
warn: Memory mode will be changed to atomic_noncaching
warn: Physical memory size specified is 32GB which is greater than 3GB.  Twice the number of memory controllers would be created.
