FileNotFoundError: [Errno 2] No such file or directory: 'topologies_and_routing/nr_lists/butter_donut_x_noci_nndbt_picky.nrl'

At:
  /home/min/a/green456/netsmith_icpp24/auto_top_gem5/configs/topologies/FS_NoCI_EscapeVirtualNetworks.py(570): ingest_flat_map_list
  /home/min/a/green456/netsmith_icpp24/auto_top_gem5/configs/topologies/FS_NoCI_EscapeVirtualNetworks.py(108): makeTopology
  /home/min/a/green456/netsmith_icpp24/auto_top_gem5/configs/ruby/Ruby.py(224): create_system
  configs/netsmith/netsmith_parsec.py(218): build_test_system
  configs/netsmith/netsmith_parsec.py(518): <module>
  build/X86/python/m5/main.py(434): main
gem5 Simulator System.  https://www.gem5.org
gem5 is copyrighted software; use the --copyright option for details.

gem5 version 22.0.0.2
gem5 compiled Apr 28 2024 22:23:45
gem5 started Jun 14 2024 13:44:15
gem5 executing on mnemosyne.ecn.purdue.edu, pid 931
command line: ./build/X86/gem5.fast -d ./parsec_results/noci_32GBxDDR4_2envs_38GHz_2MBl2_allthreads_64lwidth_sameflowpriority_lwbufadj/1000warmup_1000simul/facesim/butter_donut_x_noci_nndbt_picky_none/ configs/netsmith/netsmith_parsec.py -I 1000 --insts_after_warmup 1000 --benchmark_parsec facesim -r 1 --checkpoint-dir ./parsec_noci_checkpoints/roi_checkpoint/system_5/facesim --router_map_file ./topologies_and_routing/topo_maps/noci/butter_donut_x_noci.map --flat_vn_map_file topologies_and_routing/vn_maps/butter_donut_x_noci_nndbt_picky_none_2vns.vn --flat_nr_map_file topologies_and_routing/nr_lists/butter_donut_x_noci_nndbt_picky.nrl --topology FS_NoCI_EscapeVirtualNetworks --noi_routers 20 --noc_clk 3.8GHz --sys-clock 3.8GHz --cpu-clock 3.8GHz --ruby-clock 3.8GHz --noi_clk 2.7GHz --num-cpus 64 --mem_or_coh mem --num-dirs 32 --caches --num-l2caches 64 --l2_size 2MB --num_chiplets 4 --mem-size 32GB --ruby --network garnet --link-width-bits 64 --kernel /home/yara/mithuna2/green456/netsmith_autotop/auto_top_gem5/parsec_disk_image/vmlinux-5.4.49 --disk-image /home/yara/mithuna2/green456/netsmith_autotop/auto_top_gem5/parsec_disk_image/x86-parsec --cpu-type X86O3CPU --routing-algorithm 2 --use_escape_vns --vcs-per-vnet 10 --evn_n_deadlock_free 1 --evn_min_n_deadlock_free 2 --evn_deadlock_partition 8 --mem-type DDR4_2400_16x4

l1_caches(64)=[<m5.objects.L1Cache_Controller.L1Cache_Controller object at 0x7f81dd9cfeb8>, <m5.objects.L1Cache_Controller.L1Cache_Controller object at 0x7f81dd9d3f28>, <m5.objects.L1Cache_Controller.L1Cache_Controller object at 0x7f81dd9e0f28>, <m5.objects.L1Cache_Controller.L1Cache_Controller object at 0x7f81dd9e9f28>, <m5.objects.L1Cache_Controller.L1Cache_Controller object at 0x7f81dd9f2f28>, <m5.objects.L1Cache_Controller.L1Cache_Controller object at 0x7f81dd97bf28>, <m5.objects.L1Cache_Controller.L1Cache_Controller object at 0x7f81dd984f28>, <m5.objects.L1Cache_Controller.L1Cache_Controller object at 0x7f81dd98ef28>, <m5.objects.L1Cache_Controller.L1Cache_Controller object at 0x7f81dd997f28>, <m5.objects.L1Cache_Controller.L1Cache_Controller object at 0x7f81dd99ff28>, <m5.objects.L1Cache_Controller.L1Cache_Controller object at 0x7f81dd9a9f28>, <m5.objects.L1Cache_Controller.L1Cache_Controller object at 0x7f81dd9b1f28>, <m5.objects.L1Cache_Controller.L1Cache_Controller object at 0x7f81dd93bf28>, <m5.objects.L1Cache_Controller.L1Cache_Controller object at 0x7f81dd943f28>, <m5.objects.L1Cache_Controller.L1Cache_Controller object at 0x7f81dd94cf28>, <m5.objects.L1Cache_Controller.L1Cache_Controller object at 0x7f81dd956f28>, <m5.objects.L1Cache_Controller.L1Cache_Controller object at 0x7f81dd95ff28>, <m5.objects.L1Cache_Controller.L1Cache_Controller object at 0x7f81dd968f28>, <m5.objects.L1Cache_Controller.L1Cache_Controller object at 0x7f81dd970f28>, <m5.objects.L1Cache_Controller.L1Cache_Controller object at 0x7f81dd8fbf28>, <m5.objects.L1Cache_Controller.L1Cache_Controller object at 0x7f81dd903f28>, <m5.objects.L1Cache_Controller.L1Cache_Controller object at 0x7f81dd90df28>, <m5.objects.L1Cache_Controller.L1Cache_Controller object at 0x7f81dd915f28>, <m5.objects.L1Cache_Controller.L1Cache_Controller object at 0x7f81dd91ff28>, <m5.objects.L1Cache_Controller.L1Cache_Controller object at 0x7f81dd928f28>, <m5.objects.L1Cache_Controller.L1Cache_Controller object at 0x7f81dd931f28>, <m5.objects.L1Cache_Controller.L1Cache_Controller object at 0x7f81dd8baf28>, <m5.objects.L1Cache_Controller.L1Cache_Controller object at 0x7f81dd8c2f28>, <m5.objects.L1Cache_Controller.L1Cache_Controller object at 0x7f81dd8ccf28>, <m5.objects.L1Cache_Controller.L1Cache_Controller object at 0x7f81dd8d5f28>, <m5.objects.L1Cache_Controller.L1Cache_Controller object at 0x7f81dd8dff28>, <m5.objects.L1Cache_Controller.L1Cache_Controller object at 0x7f81dd8e8f28>, <m5.objects.L1Cache_Controller.L1Cache_Controller object at 0x7f81dd8f2f28>, <m5.objects.L1Cache_Controller.L1Cache_Controller object at 0x7f81dd87af28>, <m5.objects.L1Cache_Controller.L1Cache_Controller object at 0x7f81dd883f28>, <m5.objects.L1Cache_Controller.L1Cache_Controller object at 0x7f81dd88cf28>, <m5.objects.L1Cache_Controller.L1Cache_Controller object at 0x7f81dd894f28>, <m5.objects.L1Cache_Controller.L1Cache_Controller object at 0x7f81dd89ef28>, <m5.objects.L1Cache_Controller.L1Cache_Controller object at 0x7f81dd8a6f28>, <m5.objects.L1Cache_Controller.L1Cache_Controller object at 0x7f81dd8b0f28>, <m5.objects.L1Cache_Controller.L1Cache_Controller object at 0x7f81dd8b8f28>, <m5.objects.L1Cache_Controller.L1Cache_Controller object at 0x7f81dd842f28>, <m5.objects.L1Cache_Controller.L1Cache_Controller object at 0x7f81dd84af28>, <m5.objects.L1Cache_Controller.L1Cache_Controller object at 0x7f81dd855f28>, <m5.objects.L1Cache_Controller.L1Cache_Controller object at 0x7f81dd85ef28>, <m5.objects.L1Cache_Controller.L1Cache_Controller object at 0x7f81dd867f28>, <m5.objects.L1Cache_Controller.L1Cache_Controller object at 0x7f81dd870f28>, <m5.objects.L1Cache_Controller.L1Cache_Controller object at 0x7f81dd879f28>, <m5.objects.L1Cache_Controller.L1Cache_Controller object at 0x7f81dd804f28>, <m5.objects.L1Cache_Controller.L1Cache_Controller object at 0x7f81dd80cf28>, <m5.objects.L1Cache_Controller.L1Cache_Controller object at 0x7f81dd816f28>, <m5.objects.L1Cache_Controller.L1Cache_Controller object at 0x7f81dd81ef28>, <m5.objects.L1Cache_Controller.L1Cache_Controller object at 0x7f81dd827f28>, <m5.objects.L1Cache_Controller.L1Cache_Controller object at 0x7f81dd830f28>, <m5.objects.L1Cache_Controller.L1Cache_Controller object at 0x7f81dd839f28>, <m5.objects.L1Cache_Controller.L1Cache_Controller object at 0x7f81dd7c3f28>, <m5.objects.L1Cache_Controller.L1Cache_Controller object at 0x7f81dd7ccf28>, <m5.objects.L1Cache_Controller.L1Cache_Controller object at 0x7f81dd7d6f28>, <m5.objects.L1Cache_Controller.L1Cache_Controller object at 0x7f81dd7def28>, <m5.objects.L1Cache_Controller.L1Cache_Controller object at 0x7f81dd7e7f28>, <m5.objects.L1Cache_Controller.L1Cache_Controller object at 0x7f81dd7eff28>, <m5.objects.L1Cache_Controller.L1Cache_Controller object at 0x7f81dd7f8f28>, <m5.objects.L1Cache_Controller.L1Cache_Controller object at 0x7f81dd781f28>, <m5.objects.L1Cache_Controller.L1Cache_Controller object at 0x7f81dd78af28>]

l2_caches(64)=[<m5.objects.L2Cache_Controller.L2Cache_Controller object at 0x7f81dd793c18>, <m5.objects.L2Cache_Controller.L2Cache_Controller object at 0x7f81dd79b6a0>, <m5.objects.L2Cache_Controller.L2Cache_Controller object at 0x7f81dd7a5128>, <m5.objects.L2Cache_Controller.L2Cache_Controller object at 0x7f81dd7a5b70>, <m5.objects.L2Cache_Controller.L2Cache_Controller object at 0x7f81dd7ad5f8>, <m5.objects.L2Cache_Controller.L2Cache_Controller object at 0x7f81dd7b7080>, <m5.objects.L2Cache_Controller.L2Cache_Controller object at 0x7f81dd7b7ac8>, <m5.objects.L2Cache_Controller.L2Cache_Controller object at 0x7f81dd73f550>, <m5.objects.L2Cache_Controller.L2Cache_Controller object at 0x7f81dd73ff98>, <m5.objects.L2Cache_Controller.L2Cache_Controller object at 0x7f81dd748a20>, <m5.objects.L2Cache_Controller.L2Cache_Controller object at 0x7f81dd7514a8>, <m5.objects.L2Cache_Controller.L2Cache_Controller object at 0x7f81dd751ef0>, <m5.objects.L2Cache_Controller.L2Cache_Controller object at 0x7f81dd759978>, <m5.objects.L2Cache_Controller.L2Cache_Controller object at 0x7f81dd763400>, <m5.objects.L2Cache_Controller.L2Cache_Controller object at 0x7f81dd763e48>, <m5.objects.L2Cache_Controller.L2Cache_Controller object at 0x7f81dd76c8d0>, <m5.objects.L2Cache_Controller.L2Cache_Controller object at 0x7f81dd774358>, <m5.objects.L2Cache_Controller.L2Cache_Controller object at 0x7f81dd774da0>, <m5.objects.L2Cache_Controller.L2Cache_Controller object at 0x7f81dd6fe828>, <m5.objects.L2Cache_Controller.L2Cache_Controller object at 0x7f81dd7072b0>, <m5.objects.L2Cache_Controller.L2Cache_Controller object at 0x7f81dd707cf8>, <m5.objects.L2Cache_Controller.L2Cache_Controller object at 0x7f81dd710780>, <m5.objects.L2Cache_Controller.L2Cache_Controller object at 0x7f81dd71a208>, <m5.objects.L2Cache_Controller.L2Cache_Controller object at 0x7f81dd71ac50>, <m5.objects.L2Cache_Controller.L2Cache_Controller object at 0x7f81dd7226d8>, <m5.objects.L2Cache_Controller.L2Cache_Controller object at 0x7f81dd72c160>, <m5.objects.L2Cache_Controller.L2Cache_Controller object at 0x7f81dd72cba8>, <m5.objects.L2Cache_Controller.L2Cache_Controller object at 0x7f81dd734630>, <m5.objects.L2Cache_Controller.L2Cache_Controller object at 0x7f81dd6bd0b8>, <m5.objects.L2Cache_Controller.L2Cache_Controller object at 0x7f81dd6bdb00>, <m5.objects.L2Cache_Controller.L2Cache_Controller object at 0x7f81dd6c7588>, <m5.objects.L2Cache_Controller.L2Cache_Controller object at 0x7f81dd6c7fd0>, <m5.objects.L2Cache_Controller.L2Cache_Controller object at 0x7f81dd6cfa58>, <m5.objects.L2Cache_Controller.L2Cache_Controller object at 0x7f81dd6d94e0>, <m5.objects.L2Cache_Controller.L2Cache_Controller object at 0x7f81dd6d9f28>, <m5.objects.L2Cache_Controller.L2Cache_Controller object at 0x7f81dd6e29b0>, <m5.objects.L2Cache_Controller.L2Cache_Controller object at 0x7f81dd6e8438>, <m5.objects.L2Cache_Controller.L2Cache_Controller object at 0x7f81dd6e8e80>, <m5.objects.L2Cache_Controller.L2Cache_Controller object at 0x7f81dd6f3908>, <m5.objects.L2Cache_Controller.L2Cache_Controller object at 0x7f81dd67c390>, <m5.objects.L2Cache_Controller.L2Cache_Controller object at 0x7f81dd67cdd8>, <m5.objects.L2Cache_Controller.L2Cache_Controller object at 0x7f81dd685860>, <m5.objects.L2Cache_Controller.L2Cache_Controller object at 0x7f81dd68e2e8>, <m5.objects.L2Cache_Controller.L2Cache_Controller object at 0x7f81dd68ed30>, <m5.objects.L2Cache_Controller.L2Cache_Controller object at 0x7f81dd6967b8>, <m5.objects.L2Cache_Controller.L2Cache_Controller object at 0x7f81dd6a0240>, <m5.objects.L2Cache_Controller.L2Cache_Controller object at 0x7f81dd6a0c88>, <m5.objects.L2Cache_Controller.L2Cache_Controller object at 0x7f81dd6a9710>, <m5.objects.L2Cache_Controller.L2Cache_Controller object at 0x7f81dd6b1198>, <m5.objects.L2Cache_Controller.L2Cache_Controller object at 0x7f81dd6b1be0>, <m5.objects.L2Cache_Controller.L2Cache_Controller object at 0x7f81dd63b668>, <m5.objects.L2Cache_Controller.L2Cache_Controller object at 0x7f81dd6430f0>, <m5.objects.L2Cache_Controller.L2Cache_Controller object at 0x7f81dd643b38>, <m5.objects.L2Cache_Controller.L2Cache_Controller object at 0x7f81dd64c5c0>, <m5.objects.L2Cache_Controller.L2Cache_Controller object at 0x7f81dd656048>, <m5.objects.L2Cache_Controller.L2Cache_Controller object at 0x7f81dd656a90>, <m5.objects.L2Cache_Controller.L2Cache_Controller object at 0x7f81dd65e518>, <m5.objects.L2Cache_Controller.L2Cache_Controller object at 0x7f81dd65ef60>, <m5.objects.L2Cache_Controller.L2Cache_Controller object at 0x7f81dd6689e8>, <m5.objects.L2Cache_Controller.L2Cache_Controller object at 0x7f81dd672470>, <m5.objects.L2Cache_Controller.L2Cache_Controller object at 0x7f81dd672eb8>, <m5.objects.L2Cache_Controller.L2Cache_Controller object at 0x7f81dd5fa940>, <m5.objects.L2Cache_Controller.L2Cache_Controller object at 0x7f81dd6033c8>, <m5.objects.L2Cache_Controller.L2Cache_Controller object at 0x7f81dd603e10>]

dirs(32)=[<m5.objects.Directory_Controller.Directory_Controller object at 0x7f81dd60b780>, <m5.objects.Directory_Controller.Directory_Controller object at 0x7f81dd60b9b0>, <m5.objects.Directory_Controller.Directory_Controller object at 0x7f81dd60bbe0>, <m5.objects.Directory_Controller.Directory_Controller object at 0x7f81dd60be10>, <m5.objects.Directory_Controller.Directory_Controller object at 0x7f81dd617080>, <m5.objects.Directory_Controller.Directory_Controller object at 0x7f81dd6172b0>, <m5.objects.Directory_Controller.Directory_Controller object at 0x7f81dd6174e0>, <m5.objects.Directory_Controller.Directory_Controller object at 0x7f81dd617710>, <m5.objects.Directory_Controller.Directory_Controller object at 0x7f81dd617940>, <m5.objects.Directory_Controller.Directory_Controller object at 0x7f81dd617b70>, <m5.objects.Directory_Controller.Directory_Controller object at 0x7f81dd617da0>, <m5.objects.Directory_Controller.Directory_Controller object at 0x7f81dd617fd0>, <m5.objects.Directory_Controller.Directory_Controller object at 0x7f81dd621240>, <m5.objects.Directory_Controller.Directory_Controller object at 0x7f81dd621470>, <m5.objects.Directory_Controller.Directory_Controller object at 0x7f81dd6216a0>, <m5.objects.Directory_Controller.Directory_Controller object at 0x7f81dd6218d0>, <m5.objects.Directory_Controller.Directory_Controller object at 0x7f81dd621b00>, <m5.objects.Directory_Controller.Directory_Controller object at 0x7f81dd621d30>, <m5.objects.Directory_Controller.Directory_Controller object at 0x7f81dd621f60>, <m5.objects.Directory_Controller.Directory_Controller object at 0x7f81dd62d1d0>, <m5.objects.Directory_Controller.Directory_Controller object at 0x7f81dd62d400>, <m5.objects.Directory_Controller.Directory_Controller object at 0x7f81dd62d630>, <m5.objects.Directory_Controller.Directory_Controller object at 0x7f81dd62d860>, <m5.objects.Directory_Controller.Directory_Controller object at 0x7f81dd62da90>, <m5.objects.Directory_Controller.Directory_Controller object at 0x7f81dd62dcc0>, <m5.objects.Directory_Controller.Directory_Controller object at 0x7f81dd62def0>, <m5.objects.Directory_Controller.Directory_Controller object at 0x7f81dd639160>, <m5.objects.Directory_Controller.Directory_Controller object at 0x7f81dd639390>, <m5.objects.Directory_Controller.Directory_Controller object at 0x7f81dd6395c0>, <m5.objects.Directory_Controller.Directory_Controller object at 0x7f81dd6397f0>, <m5.objects.Directory_Controller.Directory_Controller object at 0x7f81dd639a20>, <m5.objects.Directory_Controller.Directory_Controller object at 0x7f81dd639c50>]

dmas(2)=[<m5.objects.DMA_Controller.DMA_Controller object at 0x7f81dd59d630>, <m5.objects.DMA_Controller.DMA_Controller object at 0x7f81dd59dc50>]

others(0)=[]

ingesting topologies_and_routing/nr_lists/butter_donut_x_noci_nndbt_picky.nrl w/ # rotuers = 84
warn: Memory mode will be changed to atomic_noncaching
warn: Physical memory size specified is 32GB which is greater than 3GB.  Twice the number of memory controllers would be created.
