FileNotFoundError: [Errno 2] No such file or directory: 'topologies_and_routing/nr_lists/kite_large_noci_nndbt_picky.nrl'

At:
  /home/min/a/green456/netsmith_icpp24/auto_top_gem5/configs/topologies/FS_NoCI_EscapeVirtualNetworks.py(570): ingest_flat_map_list
  /home/min/a/green456/netsmith_icpp24/auto_top_gem5/configs/topologies/FS_NoCI_EscapeVirtualNetworks.py(108): makeTopology
  /home/min/a/green456/netsmith_icpp24/auto_top_gem5/configs/ruby/Ruby.py(224): create_system
  configs/netsmith/netsmith_parsec.py(218): build_test_system
  configs/netsmith/netsmith_parsec.py(518): <module>
  build/X86/python/m5/main.py(434): main
gem5 Simulator System.  https://www.gem5.org
gem5 is copyrighted software; use the --copyright option for details.

gem5 version 22.0.0.2
gem5 compiled Apr 28 2024 22:23:45
gem5 started Jun 14 2024 13:44:18
gem5 executing on mnemosyne.ecn.purdue.edu, pid 949
command line: ./build/X86/gem5.fast -d ./parsec_results/noci_32GBxDDR4_2envs_38GHz_2MBl2_allthreads_64lwidth_sameflowpriority_lwbufadj/1000warmup_1000simul/facesim/kite_large_noci_nndbt_picky_none/ configs/netsmith/netsmith_parsec.py -I 1000 --insts_after_warmup 1000 --benchmark_parsec facesim -r 1 --checkpoint-dir ./parsec_noci_checkpoints/roi_checkpoint/system_5/facesim --router_map_file ./topologies_and_routing/topo_maps/noci/kite_large_noci.map --flat_vn_map_file topologies_and_routing/vn_maps/kite_large_noci_nndbt_picky_none_2vns.vn --flat_nr_map_file topologies_and_routing/nr_lists/kite_large_noci_nndbt_picky.nrl --topology FS_NoCI_EscapeVirtualNetworks --noi_routers 20 --noc_clk 3.8GHz --sys-clock 3.8GHz --cpu-clock 3.8GHz --ruby-clock 3.8GHz --noi_clk 2.7GHz --num-cpus 64 --mem_or_coh mem --num-dirs 32 --caches --num-l2caches 64 --l2_size 2MB --num_chiplets 4 --mem-size 32GB --ruby --network garnet --link-width-bits 64 --kernel /home/yara/mithuna2/green456/netsmith_autotop/auto_top_gem5/parsec_disk_image/vmlinux-5.4.49 --disk-image /home/yara/mithuna2/green456/netsmith_autotop/auto_top_gem5/parsec_disk_image/x86-parsec --cpu-type X86O3CPU --routing-algorithm 2 --use_escape_vns --vcs-per-vnet 10 --evn_n_deadlock_free 1 --evn_min_n_deadlock_free 2 --evn_deadlock_partition 8 --mem-type DDR4_2400_16x4

l1_caches(64)=[<m5.objects.L1Cache_Controller.L1Cache_Controller object at 0x7fa2b9838eb8>, <m5.objects.L1Cache_Controller.L1Cache_Controller object at 0x7fa2b983cf28>, <m5.objects.L1Cache_Controller.L1Cache_Controller object at 0x7fa2b9848f28>, <m5.objects.L1Cache_Controller.L1Cache_Controller object at 0x7fa2b9852f28>, <m5.objects.L1Cache_Controller.L1Cache_Controller object at 0x7fa2b985af28>, <m5.objects.L1Cache_Controller.L1Cache_Controller object at 0x7fa2b97e3f28>, <m5.objects.L1Cache_Controller.L1Cache_Controller object at 0x7fa2b97edf28>, <m5.objects.L1Cache_Controller.L1Cache_Controller object at 0x7fa2b97f6f28>, <m5.objects.L1Cache_Controller.L1Cache_Controller object at 0x7fa2b97fff28>, <m5.objects.L1Cache_Controller.L1Cache_Controller object at 0x7fa2b9807f28>, <m5.objects.L1Cache_Controller.L1Cache_Controller object at 0x7fa2b9811f28>, <m5.objects.L1Cache_Controller.L1Cache_Controller object at 0x7fa2b9819f28>, <m5.objects.L1Cache_Controller.L1Cache_Controller object at 0x7fa2b97a3f28>, <m5.objects.L1Cache_Controller.L1Cache_Controller object at 0x7fa2b97abf28>, <m5.objects.L1Cache_Controller.L1Cache_Controller object at 0x7fa2b97b5f28>, <m5.objects.L1Cache_Controller.L1Cache_Controller object at 0x7fa2b97bef28>, <m5.objects.L1Cache_Controller.L1Cache_Controller object at 0x7fa2b97c7f28>, <m5.objects.L1Cache_Controller.L1Cache_Controller object at 0x7fa2b97d0f28>, <m5.objects.L1Cache_Controller.L1Cache_Controller object at 0x7fa2b97d9f28>, <m5.objects.L1Cache_Controller.L1Cache_Controller object at 0x7fa2b9763f28>, <m5.objects.L1Cache_Controller.L1Cache_Controller object at 0x7fa2b976bf28>, <m5.objects.L1Cache_Controller.L1Cache_Controller object at 0x7fa2b9775f28>, <m5.objects.L1Cache_Controller.L1Cache_Controller object at 0x7fa2b977df28>, <m5.objects.L1Cache_Controller.L1Cache_Controller object at 0x7fa2b9787f28>, <m5.objects.L1Cache_Controller.L1Cache_Controller object at 0x7fa2b9790f28>, <m5.objects.L1Cache_Controller.L1Cache_Controller object at 0x7fa2b979af28>, <m5.objects.L1Cache_Controller.L1Cache_Controller object at 0x7fa2b9722f28>, <m5.objects.L1Cache_Controller.L1Cache_Controller object at 0x7fa2b972af28>, <m5.objects.L1Cache_Controller.L1Cache_Controller object at 0x7fa2b9734f28>, <m5.objects.L1Cache_Controller.L1Cache_Controller object at 0x7fa2b973df28>, <m5.objects.L1Cache_Controller.L1Cache_Controller object at 0x7fa2b9748f28>, <m5.objects.L1Cache_Controller.L1Cache_Controller object at 0x7fa2b9750f28>, <m5.objects.L1Cache_Controller.L1Cache_Controller object at 0x7fa2b975af28>, <m5.objects.L1Cache_Controller.L1Cache_Controller object at 0x7fa2b96e2f28>, <m5.objects.L1Cache_Controller.L1Cache_Controller object at 0x7fa2b96ebf28>, <m5.objects.L1Cache_Controller.L1Cache_Controller object at 0x7fa2b96f4f28>, <m5.objects.L1Cache_Controller.L1Cache_Controller object at 0x7fa2b96fdf28>, <m5.objects.L1Cache_Controller.L1Cache_Controller object at 0x7fa2b9706f28>, <m5.objects.L1Cache_Controller.L1Cache_Controller object at 0x7fa2b970ef28>, <m5.objects.L1Cache_Controller.L1Cache_Controller object at 0x7fa2b9718f28>, <m5.objects.L1Cache_Controller.L1Cache_Controller object at 0x7fa2b9720f28>, <m5.objects.L1Cache_Controller.L1Cache_Controller object at 0x7fa2b96aaf28>, <m5.objects.L1Cache_Controller.L1Cache_Controller object at 0x7fa2b96b3f28>, <m5.objects.L1Cache_Controller.L1Cache_Controller object at 0x7fa2b96bdf28>, <m5.objects.L1Cache_Controller.L1Cache_Controller object at 0x7fa2b96c6f28>, <m5.objects.L1Cache_Controller.L1Cache_Controller object at 0x7fa2b96cff28>, <m5.objects.L1Cache_Controller.L1Cache_Controller object at 0x7fa2b96d8f28>, <m5.objects.L1Cache_Controller.L1Cache_Controller object at 0x7fa2b96e1f28>, <m5.objects.L1Cache_Controller.L1Cache_Controller object at 0x7fa2b966bf28>, <m5.objects.L1Cache_Controller.L1Cache_Controller object at 0x7fa2b9673f28>, <m5.objects.L1Cache_Controller.L1Cache_Controller object at 0x7fa2b967df28>, <m5.objects.L1Cache_Controller.L1Cache_Controller object at 0x7fa2b9685f28>, <m5.objects.L1Cache_Controller.L1Cache_Controller object at 0x7fa2b968ef28>, <m5.objects.L1Cache_Controller.L1Cache_Controller object at 0x7fa2b9698f28>, <m5.objects.L1Cache_Controller.L1Cache_Controller object at 0x7fa2b9622f28>, <m5.objects.L1Cache_Controller.L1Cache_Controller object at 0x7fa2b962bf28>, <m5.objects.L1Cache_Controller.L1Cache_Controller object at 0x7fa2b9634f28>, <m5.objects.L1Cache_Controller.L1Cache_Controller object at 0x7fa2b963ef28>, <m5.objects.L1Cache_Controller.L1Cache_Controller object at 0x7fa2b9647f28>, <m5.objects.L1Cache_Controller.L1Cache_Controller object at 0x7fa2b964ff28>, <m5.objects.L1Cache_Controller.L1Cache_Controller object at 0x7fa2b9658f28>, <m5.objects.L1Cache_Controller.L1Cache_Controller object at 0x7fa2b9660f28>, <m5.objects.L1Cache_Controller.L1Cache_Controller object at 0x7fa2b95e9f28>, <m5.objects.L1Cache_Controller.L1Cache_Controller object at 0x7fa2b95f2f28>]

l2_caches(64)=[<m5.objects.L2Cache_Controller.L2Cache_Controller object at 0x7fa2b95fbc18>, <m5.objects.L2Cache_Controller.L2Cache_Controller object at 0x7fa2b96046a0>, <m5.objects.L2Cache_Controller.L2Cache_Controller object at 0x7fa2b960e128>, <m5.objects.L2Cache_Controller.L2Cache_Controller object at 0x7fa2b960eb70>, <m5.objects.L2Cache_Controller.L2Cache_Controller object at 0x7fa2b96175f8>, <m5.objects.L2Cache_Controller.L2Cache_Controller object at 0x7fa2b9620080>, <m5.objects.L2Cache_Controller.L2Cache_Controller object at 0x7fa2b9620ac8>, <m5.objects.L2Cache_Controller.L2Cache_Controller object at 0x7fa2b95a8550>, <m5.objects.L2Cache_Controller.L2Cache_Controller object at 0x7fa2b95a8f98>, <m5.objects.L2Cache_Controller.L2Cache_Controller object at 0x7fa2b95b1a20>, <m5.objects.L2Cache_Controller.L2Cache_Controller object at 0x7fa2b95ba4a8>, <m5.objects.L2Cache_Controller.L2Cache_Controller object at 0x7fa2b95baef0>, <m5.objects.L2Cache_Controller.L2Cache_Controller object at 0x7fa2b95c2978>, <m5.objects.L2Cache_Controller.L2Cache_Controller object at 0x7fa2b95cc400>, <m5.objects.L2Cache_Controller.L2Cache_Controller object at 0x7fa2b95cce48>, <m5.objects.L2Cache_Controller.L2Cache_Controller object at 0x7fa2b95d58d0>, <m5.objects.L2Cache_Controller.L2Cache_Controller object at 0x7fa2b95de358>, <m5.objects.L2Cache_Controller.L2Cache_Controller object at 0x7fa2b95deda0>, <m5.objects.L2Cache_Controller.L2Cache_Controller object at 0x7fa2b9567828>, <m5.objects.L2Cache_Controller.L2Cache_Controller object at 0x7fa2b95702b0>, <m5.objects.L2Cache_Controller.L2Cache_Controller object at 0x7fa2b9570cf8>, <m5.objects.L2Cache_Controller.L2Cache_Controller object at 0x7fa2b9579780>, <m5.objects.L2Cache_Controller.L2Cache_Controller object at 0x7fa2b9583208>, <m5.objects.L2Cache_Controller.L2Cache_Controller object at 0x7fa2b9583c50>, <m5.objects.L2Cache_Controller.L2Cache_Controller object at 0x7fa2b958b6d8>, <m5.objects.L2Cache_Controller.L2Cache_Controller object at 0x7fa2b9595160>, <m5.objects.L2Cache_Controller.L2Cache_Controller object at 0x7fa2b9595ba8>, <m5.objects.L2Cache_Controller.L2Cache_Controller object at 0x7fa2b959d630>, <m5.objects.L2Cache_Controller.L2Cache_Controller object at 0x7fa2b95270b8>, <m5.objects.L2Cache_Controller.L2Cache_Controller object at 0x7fa2b9527b00>, <m5.objects.L2Cache_Controller.L2Cache_Controller object at 0x7fa2b9530588>, <m5.objects.L2Cache_Controller.L2Cache_Controller object at 0x7fa2b9530fd0>, <m5.objects.L2Cache_Controller.L2Cache_Controller object at 0x7fa2b9538a58>, <m5.objects.L2Cache_Controller.L2Cache_Controller object at 0x7fa2b95424e0>, <m5.objects.L2Cache_Controller.L2Cache_Controller object at 0x7fa2b9542f28>, <m5.objects.L2Cache_Controller.L2Cache_Controller object at 0x7fa2b954b9b0>, <m5.objects.L2Cache_Controller.L2Cache_Controller object at 0x7fa2b9551438>, <m5.objects.L2Cache_Controller.L2Cache_Controller object at 0x7fa2b9551e80>, <m5.objects.L2Cache_Controller.L2Cache_Controller object at 0x7fa2b955c908>, <m5.objects.L2Cache_Controller.L2Cache_Controller object at 0x7fa2b94e4390>, <m5.objects.L2Cache_Controller.L2Cache_Controller object at 0x7fa2b94e4dd8>, <m5.objects.L2Cache_Controller.L2Cache_Controller object at 0x7fa2b94ee860>, <m5.objects.L2Cache_Controller.L2Cache_Controller object at 0x7fa2b94f82e8>, <m5.objects.L2Cache_Controller.L2Cache_Controller object at 0x7fa2b94f8d30>, <m5.objects.L2Cache_Controller.L2Cache_Controller object at 0x7fa2b94ff7b8>, <m5.objects.L2Cache_Controller.L2Cache_Controller object at 0x7fa2b9509240>, <m5.objects.L2Cache_Controller.L2Cache_Controller object at 0x7fa2b9509c88>, <m5.objects.L2Cache_Controller.L2Cache_Controller object at 0x7fa2b9512710>, <m5.objects.L2Cache_Controller.L2Cache_Controller object at 0x7fa2b951a198>, <m5.objects.L2Cache_Controller.L2Cache_Controller object at 0x7fa2b951abe0>, <m5.objects.L2Cache_Controller.L2Cache_Controller object at 0x7fa2b94a4668>, <m5.objects.L2Cache_Controller.L2Cache_Controller object at 0x7fa2b94ac0f0>, <m5.objects.L2Cache_Controller.L2Cache_Controller object at 0x7fa2b94acb38>, <m5.objects.L2Cache_Controller.L2Cache_Controller object at 0x7fa2b94b55c0>, <m5.objects.L2Cache_Controller.L2Cache_Controller object at 0x7fa2b94bf048>, <m5.objects.L2Cache_Controller.L2Cache_Controller object at 0x7fa2b94bfa90>, <m5.objects.L2Cache_Controller.L2Cache_Controller object at 0x7fa2b94c7518>, <m5.objects.L2Cache_Controller.L2Cache_Controller object at 0x7fa2b94c7f60>, <m5.objects.L2Cache_Controller.L2Cache_Controller object at 0x7fa2b94d19e8>, <m5.objects.L2Cache_Controller.L2Cache_Controller object at 0x7fa2b94da470>, <m5.objects.L2Cache_Controller.L2Cache_Controller object at 0x7fa2b94daeb8>, <m5.objects.L2Cache_Controller.L2Cache_Controller object at 0x7fa2b9463940>, <m5.objects.L2Cache_Controller.L2Cache_Controller object at 0x7fa2b946c3c8>, <m5.objects.L2Cache_Controller.L2Cache_Controller object at 0x7fa2b946ce10>]

dirs(32)=[<m5.objects.Directory_Controller.Directory_Controller object at 0x7fa2b9474780>, <m5.objects.Directory_Controller.Directory_Controller object at 0x7fa2b94749b0>, <m5.objects.Directory_Controller.Directory_Controller object at 0x7fa2b9474be0>, <m5.objects.Directory_Controller.Directory_Controller object at 0x7fa2b9474e10>, <m5.objects.Directory_Controller.Directory_Controller object at 0x7fa2b9480080>, <m5.objects.Directory_Controller.Directory_Controller object at 0x7fa2b94802b0>, <m5.objects.Directory_Controller.Directory_Controller object at 0x7fa2b94804e0>, <m5.objects.Directory_Controller.Directory_Controller object at 0x7fa2b9480710>, <m5.objects.Directory_Controller.Directory_Controller object at 0x7fa2b9480940>, <m5.objects.Directory_Controller.Directory_Controller object at 0x7fa2b9480b70>, <m5.objects.Directory_Controller.Directory_Controller object at 0x7fa2b9480da0>, <m5.objects.Directory_Controller.Directory_Controller object at 0x7fa2b9480fd0>, <m5.objects.Directory_Controller.Directory_Controller object at 0x7fa2b948a240>, <m5.objects.Directory_Controller.Directory_Controller object at 0x7fa2b948a470>, <m5.objects.Directory_Controller.Directory_Controller object at 0x7fa2b948a6a0>, <m5.objects.Directory_Controller.Directory_Controller object at 0x7fa2b948a8d0>, <m5.objects.Directory_Controller.Directory_Controller object at 0x7fa2b948ab00>, <m5.objects.Directory_Controller.Directory_Controller object at 0x7fa2b948ad30>, <m5.objects.Directory_Controller.Directory_Controller object at 0x7fa2b948af60>, <m5.objects.Directory_Controller.Directory_Controller object at 0x7fa2b94961d0>, <m5.objects.Directory_Controller.Directory_Controller object at 0x7fa2b9496400>, <m5.objects.Directory_Controller.Directory_Controller object at 0x7fa2b9496630>, <m5.objects.Directory_Controller.Directory_Controller object at 0x7fa2b9496860>, <m5.objects.Directory_Controller.Directory_Controller object at 0x7fa2b9496a90>, <m5.objects.Directory_Controller.Directory_Controller object at 0x7fa2b9496cc0>, <m5.objects.Directory_Controller.Directory_Controller object at 0x7fa2b9496ef0>, <m5.objects.Directory_Controller.Directory_Controller object at 0x7fa2b9422160>, <m5.objects.Directory_Controller.Directory_Controller object at 0x7fa2b9422390>, <m5.objects.Directory_Controller.Directory_Controller object at 0x7fa2b94225c0>, <m5.objects.Directory_Controller.Directory_Controller object at 0x7fa2b94227f0>, <m5.objects.Directory_Controller.Directory_Controller object at 0x7fa2b9422a20>, <m5.objects.Directory_Controller.Directory_Controller object at 0x7fa2b9422c50>]

dmas(2)=[<m5.objects.DMA_Controller.DMA_Controller object at 0x7fa2b9406630>, <m5.objects.DMA_Controller.DMA_Controller object at 0x7fa2b9406c50>]

others(0)=[]

ingesting topologies_and_routing/nr_lists/kite_large_noci_nndbt_picky.nrl w/ # rotuers = 84
warn: Memory mode will be changed to atomic_noncaching
warn: Physical memory size specified is 32GB which is greater than 3GB.  Twice the number of memory controllers would be created.
