FileNotFoundError: [Errno 2] No such file or directory: 'topologies_and_routing/nr_lists/kite_med_noci_nndbt_picky.nrl'

At:
  /home/min/a/green456/netsmith_icpp24/auto_top_gem5/configs/topologies/FS_NoCI_EscapeVirtualNetworks.py(570): ingest_flat_map_list
  /home/min/a/green456/netsmith_icpp24/auto_top_gem5/configs/topologies/FS_NoCI_EscapeVirtualNetworks.py(108): makeTopology
  /home/min/a/green456/netsmith_icpp24/auto_top_gem5/configs/ruby/Ruby.py(224): create_system
  configs/netsmith/netsmith_parsec.py(218): build_test_system
  configs/netsmith/netsmith_parsec.py(518): <module>
  build/X86/python/m5/main.py(434): main
gem5 Simulator System.  https://www.gem5.org
gem5 is copyrighted software; use the --copyright option for details.

gem5 version 22.0.0.2
gem5 compiled Apr 28 2024 22:23:45
gem5 started Jun 14 2024 13:40:19
gem5 executing on mnemosyne.ecn.purdue.edu, pid 302
command line: ./build/X86/gem5.fast -d ./parsec_results/noci_32GBxDDR4_2envs_38GHz_2MBl2_allthreads_64lwidth_sameflowpriority_lwbufadj/1000warmup_1000simul/facesim/kite_med_noci_nndbt_picky_none/ configs/netsmith/netsmith_parsec.py -I 1000 --insts_after_warmup 1000 --benchmark_parsec facesim -r 1 --checkpoint-dir ./parsec_noci_checkpoints/roi_checkpoint/system_5/facesim --router_map_file ./topologies_and_routing/topo_maps/noci/kite_med_noci.map --flat_vn_map_file topologies_and_routing/vn_maps/kite_med_noci_nndbt_picky_none_2vns.vn --flat_nr_map_file topologies_and_routing/nr_lists/kite_med_noci_nndbt_picky.nrl --topology FS_NoCI_EscapeVirtualNetworks --noi_routers 20 --noc_clk 3.8GHz --sys-clock 3.8GHz --cpu-clock 3.8GHz --ruby-clock 3.8GHz --noi_clk 3.0GHz --num-cpus 64 --mem_or_coh mem --num-dirs 32 --caches --num-l2caches 64 --l2_size 2MB --num_chiplets 4 --mem-size 32GB --ruby --network garnet --link-width-bits 64 --kernel /home/yara/mithuna2/green456/netsmith_autotop/auto_top_gem5/parsec_disk_image/vmlinux-5.4.49 --disk-image /home/yara/mithuna2/green456/netsmith_autotop/auto_top_gem5/parsec_disk_image/x86-parsec --cpu-type X86O3CPU --routing-algorithm 2 --use_escape_vns --vcs-per-vnet 10 --evn_n_deadlock_free 1 --evn_min_n_deadlock_free 2 --evn_deadlock_partition 8 --mem-type DDR4_2400_16x4

l1_caches(64)=[<m5.objects.L1Cache_Controller.L1Cache_Controller object at 0x7f79409c8eb8>, <m5.objects.L1Cache_Controller.L1Cache_Controller object at 0x7f79409ccf28>, <m5.objects.L1Cache_Controller.L1Cache_Controller object at 0x7f79409d8f28>, <m5.objects.L1Cache_Controller.L1Cache_Controller object at 0x7f79409e1f28>, <m5.objects.L1Cache_Controller.L1Cache_Controller object at 0x7f79409eaf28>, <m5.objects.L1Cache_Controller.L1Cache_Controller object at 0x7f7940973f28>, <m5.objects.L1Cache_Controller.L1Cache_Controller object at 0x7f794097df28>, <m5.objects.L1Cache_Controller.L1Cache_Controller object at 0x7f7940986f28>, <m5.objects.L1Cache_Controller.L1Cache_Controller object at 0x7f794098ff28>, <m5.objects.L1Cache_Controller.L1Cache_Controller object at 0x7f7940997f28>, <m5.objects.L1Cache_Controller.L1Cache_Controller object at 0x7f79409a1f28>, <m5.objects.L1Cache_Controller.L1Cache_Controller object at 0x7f79409a9f28>, <m5.objects.L1Cache_Controller.L1Cache_Controller object at 0x7f7940932f28>, <m5.objects.L1Cache_Controller.L1Cache_Controller object at 0x7f794093bf28>, <m5.objects.L1Cache_Controller.L1Cache_Controller object at 0x7f7940944f28>, <m5.objects.L1Cache_Controller.L1Cache_Controller object at 0x7f794094ef28>, <m5.objects.L1Cache_Controller.L1Cache_Controller object at 0x7f7940957f28>, <m5.objects.L1Cache_Controller.L1Cache_Controller object at 0x7f7940960f28>, <m5.objects.L1Cache_Controller.L1Cache_Controller object at 0x7f7940969f28>, <m5.objects.L1Cache_Controller.L1Cache_Controller object at 0x7f79408f3f28>, <m5.objects.L1Cache_Controller.L1Cache_Controller object at 0x7f79408fbf28>, <m5.objects.L1Cache_Controller.L1Cache_Controller object at 0x7f7940905f28>, <m5.objects.L1Cache_Controller.L1Cache_Controller object at 0x7f794090df28>, <m5.objects.L1Cache_Controller.L1Cache_Controller object at 0x7f7940916f28>, <m5.objects.L1Cache_Controller.L1Cache_Controller object at 0x7f7940920f28>, <m5.objects.L1Cache_Controller.L1Cache_Controller object at 0x7f7940929f28>, <m5.objects.L1Cache_Controller.L1Cache_Controller object at 0x7f79408b2f28>, <m5.objects.L1Cache_Controller.L1Cache_Controller object at 0x7f79408baf28>, <m5.objects.L1Cache_Controller.L1Cache_Controller object at 0x7f79408c4f28>, <m5.objects.L1Cache_Controller.L1Cache_Controller object at 0x7f79408cdf28>, <m5.objects.L1Cache_Controller.L1Cache_Controller object at 0x7f79408d8f28>, <m5.objects.L1Cache_Controller.L1Cache_Controller object at 0x7f79408e0f28>, <m5.objects.L1Cache_Controller.L1Cache_Controller object at 0x7f79408eaf28>, <m5.objects.L1Cache_Controller.L1Cache_Controller object at 0x7f7940872f28>, <m5.objects.L1Cache_Controller.L1Cache_Controller object at 0x7f794087af28>, <m5.objects.L1Cache_Controller.L1Cache_Controller object at 0x7f7940884f28>, <m5.objects.L1Cache_Controller.L1Cache_Controller object at 0x7f794088cf28>, <m5.objects.L1Cache_Controller.L1Cache_Controller object at 0x7f7940896f28>, <m5.objects.L1Cache_Controller.L1Cache_Controller object at 0x7f794089ef28>, <m5.objects.L1Cache_Controller.L1Cache_Controller object at 0x7f79408a8f28>, <m5.objects.L1Cache_Controller.L1Cache_Controller object at 0x7f79408b0f28>, <m5.objects.L1Cache_Controller.L1Cache_Controller object at 0x7f794083af28>, <m5.objects.L1Cache_Controller.L1Cache_Controller object at 0x7f7940843f28>, <m5.objects.L1Cache_Controller.L1Cache_Controller object at 0x7f794084df28>, <m5.objects.L1Cache_Controller.L1Cache_Controller object at 0x7f7940857f28>, <m5.objects.L1Cache_Controller.L1Cache_Controller object at 0x7f794085ff28>, <m5.objects.L1Cache_Controller.L1Cache_Controller object at 0x7f7940869f28>, <m5.objects.L1Cache_Controller.L1Cache_Controller object at 0x7f7940871f28>, <m5.objects.L1Cache_Controller.L1Cache_Controller object at 0x7f79407fcf28>, <m5.objects.L1Cache_Controller.L1Cache_Controller object at 0x7f7940804f28>, <m5.objects.L1Cache_Controller.L1Cache_Controller object at 0x7f794080ef28>, <m5.objects.L1Cache_Controller.L1Cache_Controller object at 0x7f7940816f28>, <m5.objects.L1Cache_Controller.L1Cache_Controller object at 0x7f794081ff28>, <m5.objects.L1Cache_Controller.L1Cache_Controller object at 0x7f7940828f28>, <m5.objects.L1Cache_Controller.L1Cache_Controller object at 0x7f79407b2f28>, <m5.objects.L1Cache_Controller.L1Cache_Controller object at 0x7f79407bbf28>, <m5.objects.L1Cache_Controller.L1Cache_Controller object at 0x7f79407c3f28>, <m5.objects.L1Cache_Controller.L1Cache_Controller object at 0x7f79407cef28>, <m5.objects.L1Cache_Controller.L1Cache_Controller object at 0x7f79407d6f28>, <m5.objects.L1Cache_Controller.L1Cache_Controller object at 0x7f79407dff28>, <m5.objects.L1Cache_Controller.L1Cache_Controller object at 0x7f79407e7f28>, <m5.objects.L1Cache_Controller.L1Cache_Controller object at 0x7f79407f0f28>, <m5.objects.L1Cache_Controller.L1Cache_Controller object at 0x7f7940779f28>, <m5.objects.L1Cache_Controller.L1Cache_Controller object at 0x7f7940782f28>]

l2_caches(64)=[<m5.objects.L2Cache_Controller.L2Cache_Controller object at 0x7f794078bc18>, <m5.objects.L2Cache_Controller.L2Cache_Controller object at 0x7f79407946a0>, <m5.objects.L2Cache_Controller.L2Cache_Controller object at 0x7f794079e128>, <m5.objects.L2Cache_Controller.L2Cache_Controller object at 0x7f794079eb70>, <m5.objects.L2Cache_Controller.L2Cache_Controller object at 0x7f79407a65f8>, <m5.objects.L2Cache_Controller.L2Cache_Controller object at 0x7f79407b0080>, <m5.objects.L2Cache_Controller.L2Cache_Controller object at 0x7f79407b0ac8>, <m5.objects.L2Cache_Controller.L2Cache_Controller object at 0x7f7940738550>, <m5.objects.L2Cache_Controller.L2Cache_Controller object at 0x7f7940738f98>, <m5.objects.L2Cache_Controller.L2Cache_Controller object at 0x7f7940740a20>, <m5.objects.L2Cache_Controller.L2Cache_Controller object at 0x7f794074a4a8>, <m5.objects.L2Cache_Controller.L2Cache_Controller object at 0x7f794074aef0>, <m5.objects.L2Cache_Controller.L2Cache_Controller object at 0x7f7940752978>, <m5.objects.L2Cache_Controller.L2Cache_Controller object at 0x7f794075c400>, <m5.objects.L2Cache_Controller.L2Cache_Controller object at 0x7f794075ce48>, <m5.objects.L2Cache_Controller.L2Cache_Controller object at 0x7f79407658d0>, <m5.objects.L2Cache_Controller.L2Cache_Controller object at 0x7f794076d358>, <m5.objects.L2Cache_Controller.L2Cache_Controller object at 0x7f794076dda0>, <m5.objects.L2Cache_Controller.L2Cache_Controller object at 0x7f79406f7828>, <m5.objects.L2Cache_Controller.L2Cache_Controller object at 0x7f79407002b0>, <m5.objects.L2Cache_Controller.L2Cache_Controller object at 0x7f7940700cf8>, <m5.objects.L2Cache_Controller.L2Cache_Controller object at 0x7f7940708780>, <m5.objects.L2Cache_Controller.L2Cache_Controller object at 0x7f7940713208>, <m5.objects.L2Cache_Controller.L2Cache_Controller object at 0x7f7940713c50>, <m5.objects.L2Cache_Controller.L2Cache_Controller object at 0x7f794071b6d8>, <m5.objects.L2Cache_Controller.L2Cache_Controller object at 0x7f7940725160>, <m5.objects.L2Cache_Controller.L2Cache_Controller object at 0x7f7940725ba8>, <m5.objects.L2Cache_Controller.L2Cache_Controller object at 0x7f794072d630>, <m5.objects.L2Cache_Controller.L2Cache_Controller object at 0x7f79406b60b8>, <m5.objects.L2Cache_Controller.L2Cache_Controller object at 0x7f79406b6b00>, <m5.objects.L2Cache_Controller.L2Cache_Controller object at 0x7f79406c0588>, <m5.objects.L2Cache_Controller.L2Cache_Controller object at 0x7f79406c0fd0>, <m5.objects.L2Cache_Controller.L2Cache_Controller object at 0x7f79406c8a58>, <m5.objects.L2Cache_Controller.L2Cache_Controller object at 0x7f79406d24e0>, <m5.objects.L2Cache_Controller.L2Cache_Controller object at 0x7f79406d2f28>, <m5.objects.L2Cache_Controller.L2Cache_Controller object at 0x7f79406db9b0>, <m5.objects.L2Cache_Controller.L2Cache_Controller object at 0x7f79406e1438>, <m5.objects.L2Cache_Controller.L2Cache_Controller object at 0x7f79406e1e80>, <m5.objects.L2Cache_Controller.L2Cache_Controller object at 0x7f79406ec908>, <m5.objects.L2Cache_Controller.L2Cache_Controller object at 0x7f7940675390>, <m5.objects.L2Cache_Controller.L2Cache_Controller object at 0x7f7940675dd8>, <m5.objects.L2Cache_Controller.L2Cache_Controller object at 0x7f794067e860>, <m5.objects.L2Cache_Controller.L2Cache_Controller object at 0x7f79406882e8>, <m5.objects.L2Cache_Controller.L2Cache_Controller object at 0x7f7940688d30>, <m5.objects.L2Cache_Controller.L2Cache_Controller object at 0x7f794068f7b8>, <m5.objects.L2Cache_Controller.L2Cache_Controller object at 0x7f7940699240>, <m5.objects.L2Cache_Controller.L2Cache_Controller object at 0x7f7940699c88>, <m5.objects.L2Cache_Controller.L2Cache_Controller object at 0x7f79406a2710>, <m5.objects.L2Cache_Controller.L2Cache_Controller object at 0x7f79406aa198>, <m5.objects.L2Cache_Controller.L2Cache_Controller object at 0x7f79406aabe0>, <m5.objects.L2Cache_Controller.L2Cache_Controller object at 0x7f7940634668>, <m5.objects.L2Cache_Controller.L2Cache_Controller object at 0x7f794063c0f0>, <m5.objects.L2Cache_Controller.L2Cache_Controller object at 0x7f794063cb38>, <m5.objects.L2Cache_Controller.L2Cache_Controller object at 0x7f79406445c0>, <m5.objects.L2Cache_Controller.L2Cache_Controller object at 0x7f794064f048>, <m5.objects.L2Cache_Controller.L2Cache_Controller object at 0x7f794064fa90>, <m5.objects.L2Cache_Controller.L2Cache_Controller object at 0x7f7940657518>, <m5.objects.L2Cache_Controller.L2Cache_Controller object at 0x7f7940657f60>, <m5.objects.L2Cache_Controller.L2Cache_Controller object at 0x7f79406619e8>, <m5.objects.L2Cache_Controller.L2Cache_Controller object at 0x7f794066b470>, <m5.objects.L2Cache_Controller.L2Cache_Controller object at 0x7f794066beb8>, <m5.objects.L2Cache_Controller.L2Cache_Controller object at 0x7f79405f3940>, <m5.objects.L2Cache_Controller.L2Cache_Controller object at 0x7f79405fc3c8>, <m5.objects.L2Cache_Controller.L2Cache_Controller object at 0x7f79405fce10>]

dirs(32)=[<m5.objects.Directory_Controller.Directory_Controller object at 0x7f7940604780>, <m5.objects.Directory_Controller.Directory_Controller object at 0x7f79406049b0>, <m5.objects.Directory_Controller.Directory_Controller object at 0x7f7940604be0>, <m5.objects.Directory_Controller.Directory_Controller object at 0x7f7940604e10>, <m5.objects.Directory_Controller.Directory_Controller object at 0x7f7940610080>, <m5.objects.Directory_Controller.Directory_Controller object at 0x7f79406102b0>, <m5.objects.Directory_Controller.Directory_Controller object at 0x7f79406104e0>, <m5.objects.Directory_Controller.Directory_Controller object at 0x7f7940610710>, <m5.objects.Directory_Controller.Directory_Controller object at 0x7f7940610940>, <m5.objects.Directory_Controller.Directory_Controller object at 0x7f7940610b70>, <m5.objects.Directory_Controller.Directory_Controller object at 0x7f7940610da0>, <m5.objects.Directory_Controller.Directory_Controller object at 0x7f7940610fd0>, <m5.objects.Directory_Controller.Directory_Controller object at 0x7f794061a240>, <m5.objects.Directory_Controller.Directory_Controller object at 0x7f794061a470>, <m5.objects.Directory_Controller.Directory_Controller object at 0x7f794061a6a0>, <m5.objects.Directory_Controller.Directory_Controller object at 0x7f794061a8d0>, <m5.objects.Directory_Controller.Directory_Controller object at 0x7f794061ab00>, <m5.objects.Directory_Controller.Directory_Controller object at 0x7f794061ad30>, <m5.objects.Directory_Controller.Directory_Controller object at 0x7f794061af60>, <m5.objects.Directory_Controller.Directory_Controller object at 0x7f79406261d0>, <m5.objects.Directory_Controller.Directory_Controller object at 0x7f7940626400>, <m5.objects.Directory_Controller.Directory_Controller object at 0x7f7940626630>, <m5.objects.Directory_Controller.Directory_Controller object at 0x7f7940626860>, <m5.objects.Directory_Controller.Directory_Controller object at 0x7f7940626a90>, <m5.objects.Directory_Controller.Directory_Controller object at 0x7f7940626cc0>, <m5.objects.Directory_Controller.Directory_Controller object at 0x7f7940626ef0>, <m5.objects.Directory_Controller.Directory_Controller object at 0x7f79405b2160>, <m5.objects.Directory_Controller.Directory_Controller object at 0x7f79405b2390>, <m5.objects.Directory_Controller.Directory_Controller object at 0x7f79405b25c0>, <m5.objects.Directory_Controller.Directory_Controller object at 0x7f79405b27f0>, <m5.objects.Directory_Controller.Directory_Controller object at 0x7f79405b2a20>, <m5.objects.Directory_Controller.Directory_Controller object at 0x7f79405b2c50>]

dmas(2)=[<m5.objects.DMA_Controller.DMA_Controller object at 0x7f7940597630>, <m5.objects.DMA_Controller.DMA_Controller object at 0x7f7940597c50>]

others(0)=[]

ingesting topologies_and_routing/nr_lists/kite_med_noci_nndbt_picky.nrl w/ # rotuers = 84
warn: Memory mode will be changed to atomic_noncaching
warn: Physical memory size specified is 32GB which is greater than 3GB.  Twice the number of memory controllers would be created.
