FileNotFoundError: [Errno 2] No such file or directory: 'topologies_and_routing/nr_lists/dbl_bfly_x_noci_nndbt_picky.nrl'

At:
  /home/min/a/green456/netsmith_icpp24/auto_top_gem5/configs/topologies/FS_NoCI_EscapeVirtualNetworks.py(570): ingest_flat_map_list
  /home/min/a/green456/netsmith_icpp24/auto_top_gem5/configs/topologies/FS_NoCI_EscapeVirtualNetworks.py(108): makeTopology
  /home/min/a/green456/netsmith_icpp24/auto_top_gem5/configs/ruby/Ruby.py(224): create_system
  configs/netsmith/netsmith_parsec.py(218): build_test_system
  configs/netsmith/netsmith_parsec.py(518): <module>
  build/X86/python/m5/main.py(434): main
gem5 Simulator System.  https://www.gem5.org
gem5 is copyrighted software; use the --copyright option for details.

gem5 version 22.0.0.2
gem5 compiled Apr 28 2024 22:23:45
gem5 started Jun 14 2024 13:44:17
gem5 executing on mnemosyne.ecn.purdue.edu, pid 940
command line: ./build/X86/gem5.fast -d ./parsec_results/noci_32GBxDDR4_2envs_38GHz_2MBl2_allthreads_64lwidth_sameflowpriority_lwbufadj/1000warmup_1000simul/facesim/dbl_bfly_x_noci_nndbt_picky_none/ configs/netsmith/netsmith_parsec.py -I 1000 --insts_after_warmup 1000 --benchmark_parsec facesim -r 1 --checkpoint-dir ./parsec_noci_checkpoints/roi_checkpoint/system_5/facesim --router_map_file ./topologies_and_routing/topo_maps/noci/dbl_bfly_x_noci.map --flat_vn_map_file topologies_and_routing/vn_maps/dbl_bfly_x_noci_nndbt_picky_none_2vns.vn --flat_nr_map_file topologies_and_routing/nr_lists/dbl_bfly_x_noci_nndbt_picky.nrl --topology FS_NoCI_EscapeVirtualNetworks --noi_routers 20 --noc_clk 3.8GHz --sys-clock 3.8GHz --cpu-clock 3.8GHz --ruby-clock 3.8GHz --noi_clk 2.7GHz --num-cpus 64 --mem_or_coh mem --num-dirs 32 --caches --num-l2caches 64 --l2_size 2MB --num_chiplets 4 --mem-size 32GB --ruby --network garnet --link-width-bits 64 --kernel /home/yara/mithuna2/green456/netsmith_autotop/auto_top_gem5/parsec_disk_image/vmlinux-5.4.49 --disk-image /home/yara/mithuna2/green456/netsmith_autotop/auto_top_gem5/parsec_disk_image/x86-parsec --cpu-type X86O3CPU --routing-algorithm 2 --use_escape_vns --vcs-per-vnet 10 --evn_n_deadlock_free 1 --evn_min_n_deadlock_free 2 --evn_deadlock_partition 8 --mem-type DDR4_2400_16x4

l1_caches(64)=[<m5.objects.L1Cache_Controller.L1Cache_Controller object at 0x7f1414918e48>, <m5.objects.L1Cache_Controller.L1Cache_Controller object at 0x7f141491ceb8>, <m5.objects.L1Cache_Controller.L1Cache_Controller object at 0x7f1414928eb8>, <m5.objects.L1Cache_Controller.L1Cache_Controller object at 0x7f1414931eb8>, <m5.objects.L1Cache_Controller.L1Cache_Controller object at 0x7f141493beb8>, <m5.objects.L1Cache_Controller.L1Cache_Controller object at 0x7f14148c4eb8>, <m5.objects.L1Cache_Controller.L1Cache_Controller object at 0x7f14148cdeb8>, <m5.objects.L1Cache_Controller.L1Cache_Controller object at 0x7f14148d6eb8>, <m5.objects.L1Cache_Controller.L1Cache_Controller object at 0x7f14148dfeb8>, <m5.objects.L1Cache_Controller.L1Cache_Controller object at 0x7f14148e7eb8>, <m5.objects.L1Cache_Controller.L1Cache_Controller object at 0x7f14148f1eb8>, <m5.objects.L1Cache_Controller.L1Cache_Controller object at 0x7f14148f9eb8>, <m5.objects.L1Cache_Controller.L1Cache_Controller object at 0x7f1414883eb8>, <m5.objects.L1Cache_Controller.L1Cache_Controller object at 0x7f141488beb8>, <m5.objects.L1Cache_Controller.L1Cache_Controller object at 0x7f1414895eb8>, <m5.objects.L1Cache_Controller.L1Cache_Controller object at 0x7f141489eeb8>, <m5.objects.L1Cache_Controller.L1Cache_Controller object at 0x7f14148a7eb8>, <m5.objects.L1Cache_Controller.L1Cache_Controller object at 0x7f14148b1eb8>, <m5.objects.L1Cache_Controller.L1Cache_Controller object at 0x7f14148b9eb8>, <m5.objects.L1Cache_Controller.L1Cache_Controller object at 0x7f1414843eb8>, <m5.objects.L1Cache_Controller.L1Cache_Controller object at 0x7f141484beb8>, <m5.objects.L1Cache_Controller.L1Cache_Controller object at 0x7f1414855eb8>, <m5.objects.L1Cache_Controller.L1Cache_Controller object at 0x7f141485deb8>, <m5.objects.L1Cache_Controller.L1Cache_Controller object at 0x7f1414867eb8>, <m5.objects.L1Cache_Controller.L1Cache_Controller object at 0x7f1414870eb8>, <m5.objects.L1Cache_Controller.L1Cache_Controller object at 0x7f1414879eb8>, <m5.objects.L1Cache_Controller.L1Cache_Controller object at 0x7f1414802eb8>, <m5.objects.L1Cache_Controller.L1Cache_Controller object at 0x7f141480aeb8>, <m5.objects.L1Cache_Controller.L1Cache_Controller object at 0x7f1414815eb8>, <m5.objects.L1Cache_Controller.L1Cache_Controller object at 0x7f141481eeb8>, <m5.objects.L1Cache_Controller.L1Cache_Controller object at 0x7f1414828eb8>, <m5.objects.L1Cache_Controller.L1Cache_Controller object at 0x7f1414830eb8>, <m5.objects.L1Cache_Controller.L1Cache_Controller object at 0x7f141483aeb8>, <m5.objects.L1Cache_Controller.L1Cache_Controller object at 0x7f14147c2eb8>, <m5.objects.L1Cache_Controller.L1Cache_Controller object at 0x7f14147cbeb8>, <m5.objects.L1Cache_Controller.L1Cache_Controller object at 0x7f14147d4eb8>, <m5.objects.L1Cache_Controller.L1Cache_Controller object at 0x7f14147dceb8>, <m5.objects.L1Cache_Controller.L1Cache_Controller object at 0x7f14147e6eb8>, <m5.objects.L1Cache_Controller.L1Cache_Controller object at 0x7f14147eeeb8>, <m5.objects.L1Cache_Controller.L1Cache_Controller object at 0x7f14147f8eb8>, <m5.objects.L1Cache_Controller.L1Cache_Controller object at 0x7f1414800eb8>, <m5.objects.L1Cache_Controller.L1Cache_Controller object at 0x7f141478beb8>, <m5.objects.L1Cache_Controller.L1Cache_Controller object at 0x7f1414794eb8>, <m5.objects.L1Cache_Controller.L1Cache_Controller object at 0x7f141479deb8>, <m5.objects.L1Cache_Controller.L1Cache_Controller object at 0x7f14147a6eb8>, <m5.objects.L1Cache_Controller.L1Cache_Controller object at 0x7f14147afeb8>, <m5.objects.L1Cache_Controller.L1Cache_Controller object at 0x7f14147b8eb8>, <m5.objects.L1Cache_Controller.L1Cache_Controller object at 0x7f14147c0eb8>, <m5.objects.L1Cache_Controller.L1Cache_Controller object at 0x7f141474ceb8>, <m5.objects.L1Cache_Controller.L1Cache_Controller object at 0x7f1414754eb8>, <m5.objects.L1Cache_Controller.L1Cache_Controller object at 0x7f141475eeb8>, <m5.objects.L1Cache_Controller.L1Cache_Controller object at 0x7f1414766eb8>, <m5.objects.L1Cache_Controller.L1Cache_Controller object at 0x7f141476feb8>, <m5.objects.L1Cache_Controller.L1Cache_Controller object at 0x7f1414779eb8>, <m5.objects.L1Cache_Controller.L1Cache_Controller object at 0x7f1414702eb8>, <m5.objects.L1Cache_Controller.L1Cache_Controller object at 0x7f141470beb8>, <m5.objects.L1Cache_Controller.L1Cache_Controller object at 0x7f1414715eb8>, <m5.objects.L1Cache_Controller.L1Cache_Controller object at 0x7f141471eeb8>, <m5.objects.L1Cache_Controller.L1Cache_Controller object at 0x7f1414727eb8>, <m5.objects.L1Cache_Controller.L1Cache_Controller object at 0x7f141472feb8>, <m5.objects.L1Cache_Controller.L1Cache_Controller object at 0x7f1414737eb8>, <m5.objects.L1Cache_Controller.L1Cache_Controller object at 0x7f1414740eb8>, <m5.objects.L1Cache_Controller.L1Cache_Controller object at 0x7f14146c9eb8>, <m5.objects.L1Cache_Controller.L1Cache_Controller object at 0x7f14146d2eb8>]

l2_caches(64)=[<m5.objects.L2Cache_Controller.L2Cache_Controller object at 0x7f14146dbba8>, <m5.objects.L2Cache_Controller.L2Cache_Controller object at 0x7f14146e4630>, <m5.objects.L2Cache_Controller.L2Cache_Controller object at 0x7f14146ee0b8>, <m5.objects.L2Cache_Controller.L2Cache_Controller object at 0x7f14146eeb00>, <m5.objects.L2Cache_Controller.L2Cache_Controller object at 0x7f14146f6588>, <m5.objects.L2Cache_Controller.L2Cache_Controller object at 0x7f14146f6fd0>, <m5.objects.L2Cache_Controller.L2Cache_Controller object at 0x7f1414700a58>, <m5.objects.L2Cache_Controller.L2Cache_Controller object at 0x7f14146894e0>, <m5.objects.L2Cache_Controller.L2Cache_Controller object at 0x7f1414689f28>, <m5.objects.L2Cache_Controller.L2Cache_Controller object at 0x7f14146929b0>, <m5.objects.L2Cache_Controller.L2Cache_Controller object at 0x7f141469a438>, <m5.objects.L2Cache_Controller.L2Cache_Controller object at 0x7f141469ae80>, <m5.objects.L2Cache_Controller.L2Cache_Controller object at 0x7f14146a2908>, <m5.objects.L2Cache_Controller.L2Cache_Controller object at 0x7f14146ac390>, <m5.objects.L2Cache_Controller.L2Cache_Controller object at 0x7f14146acdd8>, <m5.objects.L2Cache_Controller.L2Cache_Controller object at 0x7f14146b5860>, <m5.objects.L2Cache_Controller.L2Cache_Controller object at 0x7f14146be2e8>, <m5.objects.L2Cache_Controller.L2Cache_Controller object at 0x7f14146bed30>, <m5.objects.L2Cache_Controller.L2Cache_Controller object at 0x7f14146477b8>, <m5.objects.L2Cache_Controller.L2Cache_Controller object at 0x7f1414650240>, <m5.objects.L2Cache_Controller.L2Cache_Controller object at 0x7f1414650c88>, <m5.objects.L2Cache_Controller.L2Cache_Controller object at 0x7f1414659710>, <m5.objects.L2Cache_Controller.L2Cache_Controller object at 0x7f1414663198>, <m5.objects.L2Cache_Controller.L2Cache_Controller object at 0x7f1414663be0>, <m5.objects.L2Cache_Controller.L2Cache_Controller object at 0x7f141466b668>, <m5.objects.L2Cache_Controller.L2Cache_Controller object at 0x7f14146750f0>, <m5.objects.L2Cache_Controller.L2Cache_Controller object at 0x7f1414675b38>, <m5.objects.L2Cache_Controller.L2Cache_Controller object at 0x7f141467d5c0>, <m5.objects.L2Cache_Controller.L2Cache_Controller object at 0x7f1414606048>, <m5.objects.L2Cache_Controller.L2Cache_Controller object at 0x7f1414606a90>, <m5.objects.L2Cache_Controller.L2Cache_Controller object at 0x7f1414610518>, <m5.objects.L2Cache_Controller.L2Cache_Controller object at 0x7f1414610f60>, <m5.objects.L2Cache_Controller.L2Cache_Controller object at 0x7f14146189e8>, <m5.objects.L2Cache_Controller.L2Cache_Controller object at 0x7f1414622470>, <m5.objects.L2Cache_Controller.L2Cache_Controller object at 0x7f1414622eb8>, <m5.objects.L2Cache_Controller.L2Cache_Controller object at 0x7f141462b940>, <m5.objects.L2Cache_Controller.L2Cache_Controller object at 0x7f14146323c8>, <m5.objects.L2Cache_Controller.L2Cache_Controller object at 0x7f1414632e10>, <m5.objects.L2Cache_Controller.L2Cache_Controller object at 0x7f141463c898>, <m5.objects.L2Cache_Controller.L2Cache_Controller object at 0x7f14145c5320>, <m5.objects.L2Cache_Controller.L2Cache_Controller object at 0x7f14145c5d68>, <m5.objects.L2Cache_Controller.L2Cache_Controller object at 0x7f14145cf7f0>, <m5.objects.L2Cache_Controller.L2Cache_Controller object at 0x7f14145d9278>, <m5.objects.L2Cache_Controller.L2Cache_Controller object at 0x7f14145d9cc0>, <m5.objects.L2Cache_Controller.L2Cache_Controller object at 0x7f14145e1748>, <m5.objects.L2Cache_Controller.L2Cache_Controller object at 0x7f14145ea1d0>, <m5.objects.L2Cache_Controller.L2Cache_Controller object at 0x7f14145eac18>, <m5.objects.L2Cache_Controller.L2Cache_Controller object at 0x7f14145f26a0>, <m5.objects.L2Cache_Controller.L2Cache_Controller object at 0x7f14145fb128>, <m5.objects.L2Cache_Controller.L2Cache_Controller object at 0x7f14145fbb70>, <m5.objects.L2Cache_Controller.L2Cache_Controller object at 0x7f14145855f8>, <m5.objects.L2Cache_Controller.L2Cache_Controller object at 0x7f141458c080>, <m5.objects.L2Cache_Controller.L2Cache_Controller object at 0x7f141458cac8>, <m5.objects.L2Cache_Controller.L2Cache_Controller object at 0x7f1414595550>, <m5.objects.L2Cache_Controller.L2Cache_Controller object at 0x7f1414595f98>, <m5.objects.L2Cache_Controller.L2Cache_Controller object at 0x7f141459fa20>, <m5.objects.L2Cache_Controller.L2Cache_Controller object at 0x7f14145a74a8>, <m5.objects.L2Cache_Controller.L2Cache_Controller object at 0x7f14145a7ef0>, <m5.objects.L2Cache_Controller.L2Cache_Controller object at 0x7f14145b1978>, <m5.objects.L2Cache_Controller.L2Cache_Controller object at 0x7f14145ba400>, <m5.objects.L2Cache_Controller.L2Cache_Controller object at 0x7f14145bae48>, <m5.objects.L2Cache_Controller.L2Cache_Controller object at 0x7f14145438d0>, <m5.objects.L2Cache_Controller.L2Cache_Controller object at 0x7f141454c358>, <m5.objects.L2Cache_Controller.L2Cache_Controller object at 0x7f141454cda0>]

dirs(32)=[<m5.objects.Directory_Controller.Directory_Controller object at 0x7f1414554710>, <m5.objects.Directory_Controller.Directory_Controller object at 0x7f1414554940>, <m5.objects.Directory_Controller.Directory_Controller object at 0x7f1414554b70>, <m5.objects.Directory_Controller.Directory_Controller object at 0x7f1414554da0>, <m5.objects.Directory_Controller.Directory_Controller object at 0x7f1414554fd0>, <m5.objects.Directory_Controller.Directory_Controller object at 0x7f1414560240>, <m5.objects.Directory_Controller.Directory_Controller object at 0x7f1414560470>, <m5.objects.Directory_Controller.Directory_Controller object at 0x7f14145606a0>, <m5.objects.Directory_Controller.Directory_Controller object at 0x7f14145608d0>, <m5.objects.Directory_Controller.Directory_Controller object at 0x7f1414560b00>, <m5.objects.Directory_Controller.Directory_Controller object at 0x7f1414560d30>, <m5.objects.Directory_Controller.Directory_Controller object at 0x7f1414560f60>, <m5.objects.Directory_Controller.Directory_Controller object at 0x7f141456b1d0>, <m5.objects.Directory_Controller.Directory_Controller object at 0x7f141456b400>, <m5.objects.Directory_Controller.Directory_Controller object at 0x7f141456b630>, <m5.objects.Directory_Controller.Directory_Controller object at 0x7f141456b860>, <m5.objects.Directory_Controller.Directory_Controller object at 0x7f141456ba90>, <m5.objects.Directory_Controller.Directory_Controller object at 0x7f141456bcc0>, <m5.objects.Directory_Controller.Directory_Controller object at 0x7f141456bef0>, <m5.objects.Directory_Controller.Directory_Controller object at 0x7f1414575160>, <m5.objects.Directory_Controller.Directory_Controller object at 0x7f1414575390>, <m5.objects.Directory_Controller.Directory_Controller object at 0x7f14145755c0>, <m5.objects.Directory_Controller.Directory_Controller object at 0x7f14145757f0>, <m5.objects.Directory_Controller.Directory_Controller object at 0x7f1414575a20>, <m5.objects.Directory_Controller.Directory_Controller object at 0x7f1414575c50>, <m5.objects.Directory_Controller.Directory_Controller object at 0x7f1414575e80>, <m5.objects.Directory_Controller.Directory_Controller object at 0x7f14145020f0>, <m5.objects.Directory_Controller.Directory_Controller object at 0x7f1414502320>, <m5.objects.Directory_Controller.Directory_Controller object at 0x7f1414502550>, <m5.objects.Directory_Controller.Directory_Controller object at 0x7f1414502780>, <m5.objects.Directory_Controller.Directory_Controller object at 0x7f14145029b0>, <m5.objects.Directory_Controller.Directory_Controller object at 0x7f1414502be0>]

dmas(2)=[<m5.objects.DMA_Controller.DMA_Controller object at 0x7f14144e75c0>, <m5.objects.DMA_Controller.DMA_Controller object at 0x7f14144e7be0>]

others(0)=[]

ingesting topologies_and_routing/nr_lists/dbl_bfly_x_noci_nndbt_picky.nrl w/ # rotuers = 84
warn: Memory mode will be changed to atomic_noncaching
warn: Physical memory size specified is 32GB which is greater than 3GB.  Twice the number of memory controllers would be created.
