FileNotFoundError: [Errno 2] No such file or directory: 'topologies_and_routing/nr_lists/ft_x_noci_nndbt_picky.nrl'

At:
  /home/min/a/green456/netsmith_icpp24/auto_top_gem5/configs/topologies/FS_NoCI_EscapeVirtualNetworks.py(570): ingest_flat_map_list
  /home/min/a/green456/netsmith_icpp24/auto_top_gem5/configs/topologies/FS_NoCI_EscapeVirtualNetworks.py(108): makeTopology
  /home/min/a/green456/netsmith_icpp24/auto_top_gem5/configs/ruby/Ruby.py(224): create_system
  configs/netsmith/netsmith_parsec.py(218): build_test_system
  configs/netsmith/netsmith_parsec.py(518): <module>
  build/X86/python/m5/main.py(434): main
gem5 Simulator System.  https://www.gem5.org
gem5 is copyrighted software; use the --copyright option for details.

gem5 version 22.0.0.2
gem5 compiled Apr 28 2024 22:23:45
gem5 started Jun 14 2024 13:40:20
gem5 executing on mnemosyne.ecn.purdue.edu, pid 309
command line: ./build/X86/gem5.fast -d ./parsec_results/noci_32GBxDDR4_2envs_38GHz_2MBl2_allthreads_64lwidth_sameflowpriority_lwbufadj/1000warmup_1000simul/facesim/ft_x_noci_nndbt_picky_none/ configs/netsmith/netsmith_parsec.py -I 1000 --insts_after_warmup 1000 --benchmark_parsec facesim -r 1 --checkpoint-dir ./parsec_noci_checkpoints/roi_checkpoint/system_5/facesim --router_map_file ./topologies_and_routing/topo_maps/noci/ft_x_noci.map --flat_vn_map_file topologies_and_routing/vn_maps/ft_x_noci_nndbt_picky_none_2vns.vn --flat_nr_map_file topologies_and_routing/nr_lists/ft_x_noci_nndbt_picky.nrl --topology FS_NoCI_EscapeVirtualNetworks --noi_routers 20 --noc_clk 3.8GHz --sys-clock 3.8GHz --cpu-clock 3.8GHz --ruby-clock 3.8GHz --noi_clk 3.0GHz --num-cpus 64 --mem_or_coh mem --num-dirs 32 --caches --num-l2caches 64 --l2_size 2MB --num_chiplets 4 --mem-size 32GB --ruby --network garnet --link-width-bits 64 --kernel /home/yara/mithuna2/green456/netsmith_autotop/auto_top_gem5/parsec_disk_image/vmlinux-5.4.49 --disk-image /home/yara/mithuna2/green456/netsmith_autotop/auto_top_gem5/parsec_disk_image/x86-parsec --cpu-type X86O3CPU --routing-algorithm 2 --use_escape_vns --vcs-per-vnet 10 --evn_n_deadlock_free 1 --evn_min_n_deadlock_free 2 --evn_deadlock_partition 8 --mem-type DDR4_2400_16x4

l1_caches(64)=[<m5.objects.L1Cache_Controller.L1Cache_Controller object at 0x7fa21bda0eb8>, <m5.objects.L1Cache_Controller.L1Cache_Controller object at 0x7fa21bda4f28>, <m5.objects.L1Cache_Controller.L1Cache_Controller object at 0x7fa21bdb0f28>, <m5.objects.L1Cache_Controller.L1Cache_Controller object at 0x7fa21bdb9f28>, <m5.objects.L1Cache_Controller.L1Cache_Controller object at 0x7fa21bdc2f28>, <m5.objects.L1Cache_Controller.L1Cache_Controller object at 0x7fa21bd4bf28>, <m5.objects.L1Cache_Controller.L1Cache_Controller object at 0x7fa21bd54f28>, <m5.objects.L1Cache_Controller.L1Cache_Controller object at 0x7fa21bd5ef28>, <m5.objects.L1Cache_Controller.L1Cache_Controller object at 0x7fa21bd67f28>, <m5.objects.L1Cache_Controller.L1Cache_Controller object at 0x7fa21bd6ff28>, <m5.objects.L1Cache_Controller.L1Cache_Controller object at 0x7fa21bd79f28>, <m5.objects.L1Cache_Controller.L1Cache_Controller object at 0x7fa21bd81f28>, <m5.objects.L1Cache_Controller.L1Cache_Controller object at 0x7fa21bd0bf28>, <m5.objects.L1Cache_Controller.L1Cache_Controller object at 0x7fa21bd13f28>, <m5.objects.L1Cache_Controller.L1Cache_Controller object at 0x7fa21bd1cf28>, <m5.objects.L1Cache_Controller.L1Cache_Controller object at 0x7fa21bd26f28>, <m5.objects.L1Cache_Controller.L1Cache_Controller object at 0x7fa21bd2ff28>, <m5.objects.L1Cache_Controller.L1Cache_Controller object at 0x7fa21bd38f28>, <m5.objects.L1Cache_Controller.L1Cache_Controller object at 0x7fa21bd40f28>, <m5.objects.L1Cache_Controller.L1Cache_Controller object at 0x7fa21bccbf28>, <m5.objects.L1Cache_Controller.L1Cache_Controller object at 0x7fa21bcd3f28>, <m5.objects.L1Cache_Controller.L1Cache_Controller object at 0x7fa21bcddf28>, <m5.objects.L1Cache_Controller.L1Cache_Controller object at 0x7fa21bce5f28>, <m5.objects.L1Cache_Controller.L1Cache_Controller object at 0x7fa21bceff28>, <m5.objects.L1Cache_Controller.L1Cache_Controller object at 0x7fa21bcf8f28>, <m5.objects.L1Cache_Controller.L1Cache_Controller object at 0x7fa21bd01f28>, <m5.objects.L1Cache_Controller.L1Cache_Controller object at 0x7fa21bc8af28>, <m5.objects.L1Cache_Controller.L1Cache_Controller object at 0x7fa21bc92f28>, <m5.objects.L1Cache_Controller.L1Cache_Controller object at 0x7fa21bc9cf28>, <m5.objects.L1Cache_Controller.L1Cache_Controller object at 0x7fa21bca5f28>, <m5.objects.L1Cache_Controller.L1Cache_Controller object at 0x7fa21bcaff28>, <m5.objects.L1Cache_Controller.L1Cache_Controller object at 0x7fa21bcb8f28>, <m5.objects.L1Cache_Controller.L1Cache_Controller object at 0x7fa21bcc2f28>, <m5.objects.L1Cache_Controller.L1Cache_Controller object at 0x7fa21bc4af28>, <m5.objects.L1Cache_Controller.L1Cache_Controller object at 0x7fa21bc53f28>, <m5.objects.L1Cache_Controller.L1Cache_Controller object at 0x7fa21bc5cf28>, <m5.objects.L1Cache_Controller.L1Cache_Controller object at 0x7fa21bc64f28>, <m5.objects.L1Cache_Controller.L1Cache_Controller object at 0x7fa21bc6ef28>, <m5.objects.L1Cache_Controller.L1Cache_Controller object at 0x7fa21bc76f28>, <m5.objects.L1Cache_Controller.L1Cache_Controller object at 0x7fa21bc80f28>, <m5.objects.L1Cache_Controller.L1Cache_Controller object at 0x7fa21bc88f28>, <m5.objects.L1Cache_Controller.L1Cache_Controller object at 0x7fa21bc12f28>, <m5.objects.L1Cache_Controller.L1Cache_Controller object at 0x7fa21bc1af28>, <m5.objects.L1Cache_Controller.L1Cache_Controller object at 0x7fa21bc25f28>, <m5.objects.L1Cache_Controller.L1Cache_Controller object at 0x7fa21bc2ef28>, <m5.objects.L1Cache_Controller.L1Cache_Controller object at 0x7fa21bc37f28>, <m5.objects.L1Cache_Controller.L1Cache_Controller object at 0x7fa21bc41f28>, <m5.objects.L1Cache_Controller.L1Cache_Controller object at 0x7fa21bc49f28>, <m5.objects.L1Cache_Controller.L1Cache_Controller object at 0x7fa21bbd4f28>, <m5.objects.L1Cache_Controller.L1Cache_Controller object at 0x7fa21bbdcf28>, <m5.objects.L1Cache_Controller.L1Cache_Controller object at 0x7fa21bbe6f28>, <m5.objects.L1Cache_Controller.L1Cache_Controller object at 0x7fa21bbeef28>, <m5.objects.L1Cache_Controller.L1Cache_Controller object at 0x7fa21bbf7f28>, <m5.objects.L1Cache_Controller.L1Cache_Controller object at 0x7fa21bc00f28>, <m5.objects.L1Cache_Controller.L1Cache_Controller object at 0x7fa21bc09f28>, <m5.objects.L1Cache_Controller.L1Cache_Controller object at 0x7fa21bb93f28>, <m5.objects.L1Cache_Controller.L1Cache_Controller object at 0x7fa21bb9cf28>, <m5.objects.L1Cache_Controller.L1Cache_Controller object at 0x7fa21bba6f28>, <m5.objects.L1Cache_Controller.L1Cache_Controller object at 0x7fa21bbaef28>, <m5.objects.L1Cache_Controller.L1Cache_Controller object at 0x7fa21bbb7f28>, <m5.objects.L1Cache_Controller.L1Cache_Controller object at 0x7fa21bbbff28>, <m5.objects.L1Cache_Controller.L1Cache_Controller object at 0x7fa21bbc8f28>, <m5.objects.L1Cache_Controller.L1Cache_Controller object at 0x7fa21bb51f28>, <m5.objects.L1Cache_Controller.L1Cache_Controller object at 0x7fa21bb5af28>]

l2_caches(64)=[<m5.objects.L2Cache_Controller.L2Cache_Controller object at 0x7fa21bb63c18>, <m5.objects.L2Cache_Controller.L2Cache_Controller object at 0x7fa21bb6c6a0>, <m5.objects.L2Cache_Controller.L2Cache_Controller object at 0x7fa21bb76128>, <m5.objects.L2Cache_Controller.L2Cache_Controller object at 0x7fa21bb76b70>, <m5.objects.L2Cache_Controller.L2Cache_Controller object at 0x7fa21bb7e5f8>, <m5.objects.L2Cache_Controller.L2Cache_Controller object at 0x7fa21bb88080>, <m5.objects.L2Cache_Controller.L2Cache_Controller object at 0x7fa21bb88ac8>, <m5.objects.L2Cache_Controller.L2Cache_Controller object at 0x7fa21bb10550>, <m5.objects.L2Cache_Controller.L2Cache_Controller object at 0x7fa21bb10f98>, <m5.objects.L2Cache_Controller.L2Cache_Controller object at 0x7fa21bb18a20>, <m5.objects.L2Cache_Controller.L2Cache_Controller object at 0x7fa21bb224a8>, <m5.objects.L2Cache_Controller.L2Cache_Controller object at 0x7fa21bb22ef0>, <m5.objects.L2Cache_Controller.L2Cache_Controller object at 0x7fa21bb2a978>, <m5.objects.L2Cache_Controller.L2Cache_Controller object at 0x7fa21bb34400>, <m5.objects.L2Cache_Controller.L2Cache_Controller object at 0x7fa21bb34e48>, <m5.objects.L2Cache_Controller.L2Cache_Controller object at 0x7fa21bb3d8d0>, <m5.objects.L2Cache_Controller.L2Cache_Controller object at 0x7fa21bb45358>, <m5.objects.L2Cache_Controller.L2Cache_Controller object at 0x7fa21bb45da0>, <m5.objects.L2Cache_Controller.L2Cache_Controller object at 0x7fa21bacf828>, <m5.objects.L2Cache_Controller.L2Cache_Controller object at 0x7fa21bad82b0>, <m5.objects.L2Cache_Controller.L2Cache_Controller object at 0x7fa21bad8cf8>, <m5.objects.L2Cache_Controller.L2Cache_Controller object at 0x7fa21bae1780>, <m5.objects.L2Cache_Controller.L2Cache_Controller object at 0x7fa21baeb208>, <m5.objects.L2Cache_Controller.L2Cache_Controller object at 0x7fa21baebc50>, <m5.objects.L2Cache_Controller.L2Cache_Controller object at 0x7fa21baf36d8>, <m5.objects.L2Cache_Controller.L2Cache_Controller object at 0x7fa21bafd160>, <m5.objects.L2Cache_Controller.L2Cache_Controller object at 0x7fa21bafdba8>, <m5.objects.L2Cache_Controller.L2Cache_Controller object at 0x7fa21bb05630>, <m5.objects.L2Cache_Controller.L2Cache_Controller object at 0x7fa21ba8e0b8>, <m5.objects.L2Cache_Controller.L2Cache_Controller object at 0x7fa21ba8eb00>, <m5.objects.L2Cache_Controller.L2Cache_Controller object at 0x7fa21ba98588>, <m5.objects.L2Cache_Controller.L2Cache_Controller object at 0x7fa21ba98fd0>, <m5.objects.L2Cache_Controller.L2Cache_Controller object at 0x7fa21baa0a58>, <m5.objects.L2Cache_Controller.L2Cache_Controller object at 0x7fa21baaa4e0>, <m5.objects.L2Cache_Controller.L2Cache_Controller object at 0x7fa21baaaf28>, <m5.objects.L2Cache_Controller.L2Cache_Controller object at 0x7fa21bab39b0>, <m5.objects.L2Cache_Controller.L2Cache_Controller object at 0x7fa21bab9438>, <m5.objects.L2Cache_Controller.L2Cache_Controller object at 0x7fa21bab9e80>, <m5.objects.L2Cache_Controller.L2Cache_Controller object at 0x7fa21bac4908>, <m5.objects.L2Cache_Controller.L2Cache_Controller object at 0x7fa21ba4d390>, <m5.objects.L2Cache_Controller.L2Cache_Controller object at 0x7fa21ba4ddd8>, <m5.objects.L2Cache_Controller.L2Cache_Controller object at 0x7fa21ba56860>, <m5.objects.L2Cache_Controller.L2Cache_Controller object at 0x7fa21ba5f2e8>, <m5.objects.L2Cache_Controller.L2Cache_Controller object at 0x7fa21ba5fd30>, <m5.objects.L2Cache_Controller.L2Cache_Controller object at 0x7fa21ba677b8>, <m5.objects.L2Cache_Controller.L2Cache_Controller object at 0x7fa21ba71240>, <m5.objects.L2Cache_Controller.L2Cache_Controller object at 0x7fa21ba71c88>, <m5.objects.L2Cache_Controller.L2Cache_Controller object at 0x7fa21ba7a710>, <m5.objects.L2Cache_Controller.L2Cache_Controller object at 0x7fa21ba82198>, <m5.objects.L2Cache_Controller.L2Cache_Controller object at 0x7fa21ba82be0>, <m5.objects.L2Cache_Controller.L2Cache_Controller object at 0x7fa21ba0c668>, <m5.objects.L2Cache_Controller.L2Cache_Controller object at 0x7fa21ba140f0>, <m5.objects.L2Cache_Controller.L2Cache_Controller object at 0x7fa21ba14b38>, <m5.objects.L2Cache_Controller.L2Cache_Controller object at 0x7fa21ba1d5c0>, <m5.objects.L2Cache_Controller.L2Cache_Controller object at 0x7fa21ba27048>, <m5.objects.L2Cache_Controller.L2Cache_Controller object at 0x7fa21ba27a90>, <m5.objects.L2Cache_Controller.L2Cache_Controller object at 0x7fa21ba2f518>, <m5.objects.L2Cache_Controller.L2Cache_Controller object at 0x7fa21ba2ff60>, <m5.objects.L2Cache_Controller.L2Cache_Controller object at 0x7fa21ba399e8>, <m5.objects.L2Cache_Controller.L2Cache_Controller object at 0x7fa21ba43470>, <m5.objects.L2Cache_Controller.L2Cache_Controller object at 0x7fa21ba43eb8>, <m5.objects.L2Cache_Controller.L2Cache_Controller object at 0x7fa21b9cb940>, <m5.objects.L2Cache_Controller.L2Cache_Controller object at 0x7fa21b9d43c8>, <m5.objects.L2Cache_Controller.L2Cache_Controller object at 0x7fa21b9d4e10>]

dirs(32)=[<m5.objects.Directory_Controller.Directory_Controller object at 0x7fa21b9dc780>, <m5.objects.Directory_Controller.Directory_Controller object at 0x7fa21b9dc9b0>, <m5.objects.Directory_Controller.Directory_Controller object at 0x7fa21b9dcbe0>, <m5.objects.Directory_Controller.Directory_Controller object at 0x7fa21b9dce10>, <m5.objects.Directory_Controller.Directory_Controller object at 0x7fa21b9e8080>, <m5.objects.Directory_Controller.Directory_Controller object at 0x7fa21b9e82b0>, <m5.objects.Directory_Controller.Directory_Controller object at 0x7fa21b9e84e0>, <m5.objects.Directory_Controller.Directory_Controller object at 0x7fa21b9e8710>, <m5.objects.Directory_Controller.Directory_Controller object at 0x7fa21b9e8940>, <m5.objects.Directory_Controller.Directory_Controller object at 0x7fa21b9e8b70>, <m5.objects.Directory_Controller.Directory_Controller object at 0x7fa21b9e8da0>, <m5.objects.Directory_Controller.Directory_Controller object at 0x7fa21b9e8fd0>, <m5.objects.Directory_Controller.Directory_Controller object at 0x7fa21b9f2240>, <m5.objects.Directory_Controller.Directory_Controller object at 0x7fa21b9f2470>, <m5.objects.Directory_Controller.Directory_Controller object at 0x7fa21b9f26a0>, <m5.objects.Directory_Controller.Directory_Controller object at 0x7fa21b9f28d0>, <m5.objects.Directory_Controller.Directory_Controller object at 0x7fa21b9f2b00>, <m5.objects.Directory_Controller.Directory_Controller object at 0x7fa21b9f2d30>, <m5.objects.Directory_Controller.Directory_Controller object at 0x7fa21b9f2f60>, <m5.objects.Directory_Controller.Directory_Controller object at 0x7fa21b9fe1d0>, <m5.objects.Directory_Controller.Directory_Controller object at 0x7fa21b9fe400>, <m5.objects.Directory_Controller.Directory_Controller object at 0x7fa21b9fe630>, <m5.objects.Directory_Controller.Directory_Controller object at 0x7fa21b9fe860>, <m5.objects.Directory_Controller.Directory_Controller object at 0x7fa21b9fea90>, <m5.objects.Directory_Controller.Directory_Controller object at 0x7fa21b9fecc0>, <m5.objects.Directory_Controller.Directory_Controller object at 0x7fa21b9feef0>, <m5.objects.Directory_Controller.Directory_Controller object at 0x7fa21b98a160>, <m5.objects.Directory_Controller.Directory_Controller object at 0x7fa21b98a390>, <m5.objects.Directory_Controller.Directory_Controller object at 0x7fa21b98a5c0>, <m5.objects.Directory_Controller.Directory_Controller object at 0x7fa21b98a7f0>, <m5.objects.Directory_Controller.Directory_Controller object at 0x7fa21b98aa20>, <m5.objects.Directory_Controller.Directory_Controller object at 0x7fa21b98ac50>]

dmas(2)=[<m5.objects.DMA_Controller.DMA_Controller object at 0x7fa21b96e630>, <m5.objects.DMA_Controller.DMA_Controller object at 0x7fa21b96ec50>]

others(0)=[]

ingesting topologies_and_routing/nr_lists/ft_x_noci_nndbt_picky.nrl w/ # rotuers = 84
warn: Memory mode will be changed to atomic_noncaching
warn: Physical memory size specified is 32GB which is greater than 3GB.  Twice the number of memory controllers would be created.
