ValueError: cannot convert 'my_20r_4p_25ll_topo_noci_picky_mclb_cohmem_prioritized_doubley_memoryGHz' to latency
Error setting param SrcClockDomain.clock to my_20r_4p_25ll_topo_noci_picky_mclb_cohmem_prioritized_doubley_memoryGHz


At:
  build/X86/python/m5/util/convert.py(144): convert
  build/X86/python/m5/util/convert.py(164): toNum
  build/X86/python/m5/util/convert.py(208): anyToLatency
  build/X86/python/m5/params.py(1527): __init__
  build/X86/python/m5/params.py(209): convert
  build/X86/python/m5/params.py(336): <listcomp>
  build/X86/python/m5/params.py(336): convert
  build/X86/python/m5/SimObject.py(824): __setattr__
  build/X86/python/m5/SimObject.py(720): __init__
  /home/min/a/green456/netsmith_icpp24/auto_top_gem5/configs/topologies/FS_NoCI_EscapeVirtualNetworks.py(128): makeTopology
  /home/min/a/green456/netsmith_icpp24/auto_top_gem5/configs/ruby/Ruby.py(224): create_system
  configs/netsmith/netsmith_parsec.py(218): build_test_system
  configs/netsmith/netsmith_parsec.py(518): <module>
  build/X86/python/m5/main.py(434): main
gem5 Simulator System.  https://www.gem5.org
gem5 is copyrighted software; use the --copyright option for details.

gem5 version 22.0.0.2
gem5 compiled Apr 28 2024 22:23:45
gem5 started Jun 14 2024 17:26:26
gem5 executing on mnemosyne.ecn.purdue.edu, pid 16687
command line: ./build/X86/gem5.fast -d ./parsec_results/noci_32GBxDDR4/1000warmup_1000simul/facesim/my_20r_4p_25ll_topo_noci_picky_mclb_cohmem_prioritized_doubley_memory_hops_6vns/ configs/netsmith/netsmith_parsec.py -I 1000 --insts_after_warmup 1000 --benchmark_parsec facesim -r 1 --checkpoint-dir ./parsec_noci_checkpoints/roi_checkpoint/system_5/facesim --kernel ./parsec_disk_image/vmlinux-5.4.49 --disk-image ./parsec_disk_image/x86-parsec --router_map_file ./topologies_and_routing/topo_maps/noci/my_20r_4p_25ll_topo_noci.map --flat_vn_map_file topologies_and_routing/vn_maps/my_20r_4p_25ll_topo_noci_picky_mclb_cohmem_prioritized_doubley_memory_hops_6vns.vn --flat_nr_map_file topologies_and_routing/nr_lists/my_20r_4p_25ll_topo_noci_picky_mclb_cohmem_prioritized_doubley_memory.nrl --noi_clk my_20r_4p_25ll_topo_noci_picky_mclb_cohmem_prioritized_doubley_memoryGHz --vcs-per-vnet 10 --evn_n_deadlock_free 1 --evn_min_n_deadlock_free 6 --evn_deadlock_partition 4 --topology FS_NoCI_EscapeVirtualNetworks --noi_routers 20 --noc_clk 3.8GHz --sys-clock 3.8GHz --cpu-clock 3.8GHz --ruby-clock 3.8GHz --num-cpus 64 --mem_or_coh mem --num-dirs 32 --caches --num-l2caches 64 --l2_size 2MB --num_chiplets 4 --mem-size 32GB --ruby --network garnet --link-width-bits 64 --cpu-type X86O3CPU --routing-algorithm 2 --use_escape_vns --mem-type DDR4_2400_16x4

l1_caches(64)=[<m5.objects.L1Cache_Controller.L1Cache_Controller object at 0x7f6c5076feb8>, <m5.objects.L1Cache_Controller.L1Cache_Controller object at 0x7f6c50773f28>, <m5.objects.L1Cache_Controller.L1Cache_Controller object at 0x7f6c50780f28>, <m5.objects.L1Cache_Controller.L1Cache_Controller object at 0x7f6c50789f28>, <m5.objects.L1Cache_Controller.L1Cache_Controller object at 0x7f6c50792f28>, <m5.objects.L1Cache_Controller.L1Cache_Controller object at 0x7f6c5071bf28>, <m5.objects.L1Cache_Controller.L1Cache_Controller object at 0x7f6c50724f28>, <m5.objects.L1Cache_Controller.L1Cache_Controller object at 0x7f6c5072ef28>, <m5.objects.L1Cache_Controller.L1Cache_Controller object at 0x7f6c50737f28>, <m5.objects.L1Cache_Controller.L1Cache_Controller object at 0x7f6c5073ef28>, <m5.objects.L1Cache_Controller.L1Cache_Controller object at 0x7f6c50749f28>, <m5.objects.L1Cache_Controller.L1Cache_Controller object at 0x7f6c50751f28>, <m5.objects.L1Cache_Controller.L1Cache_Controller object at 0x7f6c506dbf28>, <m5.objects.L1Cache_Controller.L1Cache_Controller object at 0x7f6c506e3f28>, <m5.objects.L1Cache_Controller.L1Cache_Controller object at 0x7f6c506ecf28>, <m5.objects.L1Cache_Controller.L1Cache_Controller object at 0x7f6c506f6f28>, <m5.objects.L1Cache_Controller.L1Cache_Controller object at 0x7f6c506fff28>, <m5.objects.L1Cache_Controller.L1Cache_Controller object at 0x7f6c50708f28>, <m5.objects.L1Cache_Controller.L1Cache_Controller object at 0x7f6c50710f28>, <m5.objects.L1Cache_Controller.L1Cache_Controller object at 0x7f6c5069bf28>, <m5.objects.L1Cache_Controller.L1Cache_Controller object at 0x7f6c506a3f28>, <m5.objects.L1Cache_Controller.L1Cache_Controller object at 0x7f6c506adf28>, <m5.objects.L1Cache_Controller.L1Cache_Controller object at 0x7f6c506b5f28>, <m5.objects.L1Cache_Controller.L1Cache_Controller object at 0x7f6c506c0f28>, <m5.objects.L1Cache_Controller.L1Cache_Controller object at 0x7f6c506c8f28>, <m5.objects.L1Cache_Controller.L1Cache_Controller object at 0x7f6c506d1f28>, <m5.objects.L1Cache_Controller.L1Cache_Controller object at 0x7f6c5065af28>, <m5.objects.L1Cache_Controller.L1Cache_Controller object at 0x7f6c50662f28>, <m5.objects.L1Cache_Controller.L1Cache_Controller object at 0x7f6c5066cf28>, <m5.objects.L1Cache_Controller.L1Cache_Controller object at 0x7f6c50675f28>, <m5.objects.L1Cache_Controller.L1Cache_Controller object at 0x7f6c5067ff28>, <m5.objects.L1Cache_Controller.L1Cache_Controller object at 0x7f6c50688f28>, <m5.objects.L1Cache_Controller.L1Cache_Controller object at 0x7f6c50692f28>, <m5.objects.L1Cache_Controller.L1Cache_Controller object at 0x7f6c5061af28>, <m5.objects.L1Cache_Controller.L1Cache_Controller object at 0x7f6c50622f28>, <m5.objects.L1Cache_Controller.L1Cache_Controller object at 0x7f6c5062cf28>, <m5.objects.L1Cache_Controller.L1Cache_Controller object at 0x7f6c50634f28>, <m5.objects.L1Cache_Controller.L1Cache_Controller object at 0x7f6c5063ef28>, <m5.objects.L1Cache_Controller.L1Cache_Controller object at 0x7f6c50646f28>, <m5.objects.L1Cache_Controller.L1Cache_Controller object at 0x7f6c50650f28>, <m5.objects.L1Cache_Controller.L1Cache_Controller object at 0x7f6c50658f28>, <m5.objects.L1Cache_Controller.L1Cache_Controller object at 0x7f6c505e2f28>, <m5.objects.L1Cache_Controller.L1Cache_Controller object at 0x7f6c505eaf28>, <m5.objects.L1Cache_Controller.L1Cache_Controller object at 0x7f6c505f5f28>, <m5.objects.L1Cache_Controller.L1Cache_Controller object at 0x7f6c505fef28>, <m5.objects.L1Cache_Controller.L1Cache_Controller object at 0x7f6c50607f28>, <m5.objects.L1Cache_Controller.L1Cache_Controller object at 0x7f6c50610f28>, <m5.objects.L1Cache_Controller.L1Cache_Controller object at 0x7f6c50619f28>, <m5.objects.L1Cache_Controller.L1Cache_Controller object at 0x7f6c505a4f28>, <m5.objects.L1Cache_Controller.L1Cache_Controller object at 0x7f6c505acf28>, <m5.objects.L1Cache_Controller.L1Cache_Controller object at 0x7f6c505b6f28>, <m5.objects.L1Cache_Controller.L1Cache_Controller object at 0x7f6c505bef28>, <m5.objects.L1Cache_Controller.L1Cache_Controller object at 0x7f6c505c7f28>, <m5.objects.L1Cache_Controller.L1Cache_Controller object at 0x7f6c505d0f28>, <m5.objects.L1Cache_Controller.L1Cache_Controller object at 0x7f6c505d9f28>, <m5.objects.L1Cache_Controller.L1Cache_Controller object at 0x7f6c50563f28>, <m5.objects.L1Cache_Controller.L1Cache_Controller object at 0x7f6c5056cf28>, <m5.objects.L1Cache_Controller.L1Cache_Controller object at 0x7f6c50576f28>, <m5.objects.L1Cache_Controller.L1Cache_Controller object at 0x7f6c5057ff28>, <m5.objects.L1Cache_Controller.L1Cache_Controller object at 0x7f6c50585f28>, <m5.objects.L1Cache_Controller.L1Cache_Controller object at 0x7f6c5058ff28>, <m5.objects.L1Cache_Controller.L1Cache_Controller object at 0x7f6c50598f28>, <m5.objects.L1Cache_Controller.L1Cache_Controller object at 0x7f6c50521f28>, <m5.objects.L1Cache_Controller.L1Cache_Controller object at 0x7f6c5052af28>]

l2_caches(64)=[<m5.objects.L2Cache_Controller.L2Cache_Controller object at 0x7f6c50533c18>, <m5.objects.L2Cache_Controller.L2Cache_Controller object at 0x7f6c5053b6a0>, <m5.objects.L2Cache_Controller.L2Cache_Controller object at 0x7f6c50545128>, <m5.objects.L2Cache_Controller.L2Cache_Controller object at 0x7f6c50545b70>, <m5.objects.L2Cache_Controller.L2Cache_Controller object at 0x7f6c5054d5f8>, <m5.objects.L2Cache_Controller.L2Cache_Controller object at 0x7f6c50557080>, <m5.objects.L2Cache_Controller.L2Cache_Controller object at 0x7f6c50557ac8>, <m5.objects.L2Cache_Controller.L2Cache_Controller object at 0x7f6c504df550>, <m5.objects.L2Cache_Controller.L2Cache_Controller object at 0x7f6c504dff98>, <m5.objects.L2Cache_Controller.L2Cache_Controller object at 0x7f6c504e8a20>, <m5.objects.L2Cache_Controller.L2Cache_Controller object at 0x7f6c504f14a8>, <m5.objects.L2Cache_Controller.L2Cache_Controller object at 0x7f6c504f1ef0>, <m5.objects.L2Cache_Controller.L2Cache_Controller object at 0x7f6c504f9978>, <m5.objects.L2Cache_Controller.L2Cache_Controller object at 0x7f6c50503400>, <m5.objects.L2Cache_Controller.L2Cache_Controller object at 0x7f6c50503e48>, <m5.objects.L2Cache_Controller.L2Cache_Controller object at 0x7f6c5050c8d0>, <m5.objects.L2Cache_Controller.L2Cache_Controller object at 0x7f6c50514358>, <m5.objects.L2Cache_Controller.L2Cache_Controller object at 0x7f6c50514da0>, <m5.objects.L2Cache_Controller.L2Cache_Controller object at 0x7f6c5049e828>, <m5.objects.L2Cache_Controller.L2Cache_Controller object at 0x7f6c504a72b0>, <m5.objects.L2Cache_Controller.L2Cache_Controller object at 0x7f6c504a7cf8>, <m5.objects.L2Cache_Controller.L2Cache_Controller object at 0x7f6c504b1780>, <m5.objects.L2Cache_Controller.L2Cache_Controller object at 0x7f6c504ba208>, <m5.objects.L2Cache_Controller.L2Cache_Controller object at 0x7f6c504bac50>, <m5.objects.L2Cache_Controller.L2Cache_Controller object at 0x7f6c504c26d8>, <m5.objects.L2Cache_Controller.L2Cache_Controller object at 0x7f6c504cc160>, <m5.objects.L2Cache_Controller.L2Cache_Controller object at 0x7f6c504ccba8>, <m5.objects.L2Cache_Controller.L2Cache_Controller object at 0x7f6c504d4630>, <m5.objects.L2Cache_Controller.L2Cache_Controller object at 0x7f6c5045d0b8>, <m5.objects.L2Cache_Controller.L2Cache_Controller object at 0x7f6c5045db00>, <m5.objects.L2Cache_Controller.L2Cache_Controller object at 0x7f6c50467588>, <m5.objects.L2Cache_Controller.L2Cache_Controller object at 0x7f6c50467fd0>, <m5.objects.L2Cache_Controller.L2Cache_Controller object at 0x7f6c50470a58>, <m5.objects.L2Cache_Controller.L2Cache_Controller object at 0x7f6c504794e0>, <m5.objects.L2Cache_Controller.L2Cache_Controller object at 0x7f6c50479f28>, <m5.objects.L2Cache_Controller.L2Cache_Controller object at 0x7f6c504829b0>, <m5.objects.L2Cache_Controller.L2Cache_Controller object at 0x7f6c50488438>, <m5.objects.L2Cache_Controller.L2Cache_Controller object at 0x7f6c50488e80>, <m5.objects.L2Cache_Controller.L2Cache_Controller object at 0x7f6c50493908>, <m5.objects.L2Cache_Controller.L2Cache_Controller object at 0x7f6c5041b390>, <m5.objects.L2Cache_Controller.L2Cache_Controller object at 0x7f6c5041bdd8>, <m5.objects.L2Cache_Controller.L2Cache_Controller object at 0x7f6c50426860>, <m5.objects.L2Cache_Controller.L2Cache_Controller object at 0x7f6c5042e2e8>, <m5.objects.L2Cache_Controller.L2Cache_Controller object at 0x7f6c5042ed30>, <m5.objects.L2Cache_Controller.L2Cache_Controller object at 0x7f6c504367b8>, <m5.objects.L2Cache_Controller.L2Cache_Controller object at 0x7f6c50440240>, <m5.objects.L2Cache_Controller.L2Cache_Controller object at 0x7f6c50440c88>, <m5.objects.L2Cache_Controller.L2Cache_Controller object at 0x7f6c50449710>, <m5.objects.L2Cache_Controller.L2Cache_Controller object at 0x7f6c50451198>, <m5.objects.L2Cache_Controller.L2Cache_Controller object at 0x7f6c50451be0>, <m5.objects.L2Cache_Controller.L2Cache_Controller object at 0x7f6c503db668>, <m5.objects.L2Cache_Controller.L2Cache_Controller object at 0x7f6c503e30f0>, <m5.objects.L2Cache_Controller.L2Cache_Controller object at 0x7f6c503e3b38>, <m5.objects.L2Cache_Controller.L2Cache_Controller object at 0x7f6c503ec5c0>, <m5.objects.L2Cache_Controller.L2Cache_Controller object at 0x7f6c503f6048>, <m5.objects.L2Cache_Controller.L2Cache_Controller object at 0x7f6c503f6a90>, <m5.objects.L2Cache_Controller.L2Cache_Controller object at 0x7f6c503fe518>, <m5.objects.L2Cache_Controller.L2Cache_Controller object at 0x7f6c503fef60>, <m5.objects.L2Cache_Controller.L2Cache_Controller object at 0x7f6c504089e8>, <m5.objects.L2Cache_Controller.L2Cache_Controller object at 0x7f6c50411470>, <m5.objects.L2Cache_Controller.L2Cache_Controller object at 0x7f6c50411eb8>, <m5.objects.L2Cache_Controller.L2Cache_Controller object at 0x7f6c5039a940>, <m5.objects.L2Cache_Controller.L2Cache_Controller object at 0x7f6c503a33c8>, <m5.objects.L2Cache_Controller.L2Cache_Controller object at 0x7f6c503a3e10>]

dirs(32)=[<m5.objects.Directory_Controller.Directory_Controller object at 0x7f6c503ab780>, <m5.objects.Directory_Controller.Directory_Controller object at 0x7f6c503ab9b0>, <m5.objects.Directory_Controller.Directory_Controller object at 0x7f6c503abbe0>, <m5.objects.Directory_Controller.Directory_Controller object at 0x7f6c503abe10>, <m5.objects.Directory_Controller.Directory_Controller object at 0x7f6c503b7080>, <m5.objects.Directory_Controller.Directory_Controller object at 0x7f6c503b72b0>, <m5.objects.Directory_Controller.Directory_Controller object at 0x7f6c503b74e0>, <m5.objects.Directory_Controller.Directory_Controller object at 0x7f6c503b7710>, <m5.objects.Directory_Controller.Directory_Controller object at 0x7f6c503b7940>, <m5.objects.Directory_Controller.Directory_Controller object at 0x7f6c503b7b70>, <m5.objects.Directory_Controller.Directory_Controller object at 0x7f6c503b7da0>, <m5.objects.Directory_Controller.Directory_Controller object at 0x7f6c503b7fd0>, <m5.objects.Directory_Controller.Directory_Controller object at 0x7f6c503c1240>, <m5.objects.Directory_Controller.Directory_Controller object at 0x7f6c503c1470>, <m5.objects.Directory_Controller.Directory_Controller object at 0x7f6c503c16a0>, <m5.objects.Directory_Controller.Directory_Controller object at 0x7f6c503c18d0>, <m5.objects.Directory_Controller.Directory_Controller object at 0x7f6c503c1b00>, <m5.objects.Directory_Controller.Directory_Controller object at 0x7f6c503c1d30>, <m5.objects.Directory_Controller.Directory_Controller object at 0x7f6c503c1f60>, <m5.objects.Directory_Controller.Directory_Controller object at 0x7f6c503cd1d0>, <m5.objects.Directory_Controller.Directory_Controller object at 0x7f6c503cd400>, <m5.objects.Directory_Controller.Directory_Controller object at 0x7f6c503cd630>, <m5.objects.Directory_Controller.Directory_Controller object at 0x7f6c503cd860>, <m5.objects.Directory_Controller.Directory_Controller object at 0x7f6c503cda90>, <m5.objects.Directory_Controller.Directory_Controller object at 0x7f6c503cdcc0>, <m5.objects.Directory_Controller.Directory_Controller object at 0x7f6c503cdef0>, <m5.objects.Directory_Controller.Directory_Controller object at 0x7f6c503d9160>, <m5.objects.Directory_Controller.Directory_Controller object at 0x7f6c503d9390>, <m5.objects.Directory_Controller.Directory_Controller object at 0x7f6c503d95c0>, <m5.objects.Directory_Controller.Directory_Controller object at 0x7f6c503d97f0>, <m5.objects.Directory_Controller.Directory_Controller object at 0x7f6c503d9a20>, <m5.objects.Directory_Controller.Directory_Controller object at 0x7f6c503d9c50>]

dmas(2)=[<m5.objects.DMA_Controller.DMA_Controller object at 0x7f6c5033d630>, <m5.objects.DMA_Controller.DMA_Controller object at 0x7f6c5033dc50>]

others(0)=[]

ingesting topologies_and_routing/nr_lists/my_20r_4p_25ll_topo_noci_picky_mclb_cohmem_prioritized_doubley_memory.nrl w/ # rotuers = 84
ingesting topologies_and_routing/vn_maps/my_20r_4p_25ll_topo_noci_picky_mclb_cohmem_prioritized_doubley_memory_hops_6vns.vn
warn: Memory mode will be changed to atomic_noncaching
warn: Physical memory size specified is 32GB which is greater than 3GB.  Twice the number of memory controllers would be created.
