FileNotFoundError: [Errno 2] No such file or directory: 'topologies_and_routing/nr_lists/kite_large_noci_nndbt_picky.nrl'

At:
  /home/min/a/green456/netsmith_icpp24/auto_top_gem5/configs/topologies/FS_NoCI_EscapeVirtualNetworks.py(570): ingest_flat_map_list
  /home/min/a/green456/netsmith_icpp24/auto_top_gem5/configs/topologies/FS_NoCI_EscapeVirtualNetworks.py(108): makeTopology
  /home/min/a/green456/netsmith_icpp24/auto_top_gem5/configs/ruby/Ruby.py(224): create_system
  configs/netsmith/netsmith_parsec.py(218): build_test_system
  configs/netsmith/netsmith_parsec.py(518): <module>
  build/X86/python/m5/main.py(434): main
gem5 Simulator System.  https://www.gem5.org
gem5 is copyrighted software; use the --copyright option for details.

gem5 version 22.0.0.2
gem5 compiled Apr 28 2024 22:23:45
gem5 started Jun 14 2024 14:00:09
gem5 executing on mnemosyne.ecn.purdue.edu, pid 8318
command line: ./build/X86/gem5.fast -d ./parsec_results/noci_32GBxDDR4_2envs_38GHz_2MBl2_allthreads_64lwidth_sameflowpriority_lwbufadj/1000warmup_1000simul/ferret/kite_large_noci_nndbt_picky_none/ configs/netsmith/netsmith_parsec.py -I 1000 --insts_after_warmup 1000 --benchmark_parsec ferret -r 1 --checkpoint-dir ./parsec_noci_checkpoints/roi_checkpoint/system_5/ferret --router_map_file ./topologies_and_routing/topo_maps/noci/kite_large_noci.map --flat_vn_map_file topologies_and_routing/vn_maps/kite_large_noci_nndbt_picky_none_2vns.vn --flat_nr_map_file topologies_and_routing/nr_lists/kite_large_noci_nndbt_picky.nrl --topology FS_NoCI_EscapeVirtualNetworks --noi_routers 20 --noc_clk 3.8GHz --sys-clock 3.8GHz --cpu-clock 3.8GHz --ruby-clock 3.8GHz --noi_clk 2.7GHz --num-cpus 64 --mem_or_coh mem --num-dirs 32 --caches --num-l2caches 64 --l2_size 2MB --num_chiplets 4 --mem-size 32GB --ruby --network garnet --link-width-bits 64 --kernel /home/yara/mithuna2/green456/netsmith_autotop/auto_top_gem5/parsec_disk_image/vmlinux-5.4.49 --disk-image /home/yara/mithuna2/green456/netsmith_autotop/auto_top_gem5/parsec_disk_image/x86-parsec --cpu-type X86O3CPU --routing-algorithm 2 --use_escape_vns --vcs-per-vnet 10 --evn_n_deadlock_free 1 --evn_min_n_deadlock_free 2 --evn_deadlock_partition 8 --mem-type DDR4_2400_16x4

l1_caches(64)=[<m5.objects.L1Cache_Controller.L1Cache_Controller object at 0x7f1907368e48>, <m5.objects.L1Cache_Controller.L1Cache_Controller object at 0x7f1907370eb8>, <m5.objects.L1Cache_Controller.L1Cache_Controller object at 0x7f1907378eb8>, <m5.objects.L1Cache_Controller.L1Cache_Controller object at 0x7f1907381eb8>, <m5.objects.L1Cache_Controller.L1Cache_Controller object at 0x7f190738beb8>, <m5.objects.L1Cache_Controller.L1Cache_Controller object at 0x7f1907314eb8>, <m5.objects.L1Cache_Controller.L1Cache_Controller object at 0x7f190731deb8>, <m5.objects.L1Cache_Controller.L1Cache_Controller object at 0x7f1907326eb8>, <m5.objects.L1Cache_Controller.L1Cache_Controller object at 0x7f190732feb8>, <m5.objects.L1Cache_Controller.L1Cache_Controller object at 0x7f1907337eb8>, <m5.objects.L1Cache_Controller.L1Cache_Controller object at 0x7f1907341eb8>, <m5.objects.L1Cache_Controller.L1Cache_Controller object at 0x7f1907349eb8>, <m5.objects.L1Cache_Controller.L1Cache_Controller object at 0x7f19072d3eb8>, <m5.objects.L1Cache_Controller.L1Cache_Controller object at 0x7f19072dbeb8>, <m5.objects.L1Cache_Controller.L1Cache_Controller object at 0x7f19072e5eb8>, <m5.objects.L1Cache_Controller.L1Cache_Controller object at 0x7f19072eeeb8>, <m5.objects.L1Cache_Controller.L1Cache_Controller object at 0x7f19072f7eb8>, <m5.objects.L1Cache_Controller.L1Cache_Controller object at 0x7f1907301eb8>, <m5.objects.L1Cache_Controller.L1Cache_Controller object at 0x7f1907309eb8>, <m5.objects.L1Cache_Controller.L1Cache_Controller object at 0x7f1907293eb8>, <m5.objects.L1Cache_Controller.L1Cache_Controller object at 0x7f190729beb8>, <m5.objects.L1Cache_Controller.L1Cache_Controller object at 0x7f19072a5eb8>, <m5.objects.L1Cache_Controller.L1Cache_Controller object at 0x7f19072adeb8>, <m5.objects.L1Cache_Controller.L1Cache_Controller object at 0x7f19072b7eb8>, <m5.objects.L1Cache_Controller.L1Cache_Controller object at 0x7f19072c0eb8>, <m5.objects.L1Cache_Controller.L1Cache_Controller object at 0x7f19072c9eb8>, <m5.objects.L1Cache_Controller.L1Cache_Controller object at 0x7f1907252eb8>, <m5.objects.L1Cache_Controller.L1Cache_Controller object at 0x7f190725aeb8>, <m5.objects.L1Cache_Controller.L1Cache_Controller object at 0x7f1907265eb8>, <m5.objects.L1Cache_Controller.L1Cache_Controller object at 0x7f190726eeb8>, <m5.objects.L1Cache_Controller.L1Cache_Controller object at 0x7f1907278eb8>, <m5.objects.L1Cache_Controller.L1Cache_Controller object at 0x7f1907280eb8>, <m5.objects.L1Cache_Controller.L1Cache_Controller object at 0x7f190728aeb8>, <m5.objects.L1Cache_Controller.L1Cache_Controller object at 0x7f1907212eb8>, <m5.objects.L1Cache_Controller.L1Cache_Controller object at 0x7f190721beb8>, <m5.objects.L1Cache_Controller.L1Cache_Controller object at 0x7f1907224eb8>, <m5.objects.L1Cache_Controller.L1Cache_Controller object at 0x7f190722ceb8>, <m5.objects.L1Cache_Controller.L1Cache_Controller object at 0x7f1907236eb8>, <m5.objects.L1Cache_Controller.L1Cache_Controller object at 0x7f190723eeb8>, <m5.objects.L1Cache_Controller.L1Cache_Controller object at 0x7f1907248eb8>, <m5.objects.L1Cache_Controller.L1Cache_Controller object at 0x7f1907250eb8>, <m5.objects.L1Cache_Controller.L1Cache_Controller object at 0x7f19071dbeb8>, <m5.objects.L1Cache_Controller.L1Cache_Controller object at 0x7f19071e4eb8>, <m5.objects.L1Cache_Controller.L1Cache_Controller object at 0x7f19071edeb8>, <m5.objects.L1Cache_Controller.L1Cache_Controller object at 0x7f19071f6eb8>, <m5.objects.L1Cache_Controller.L1Cache_Controller object at 0x7f19071ffeb8>, <m5.objects.L1Cache_Controller.L1Cache_Controller object at 0x7f1907209eb8>, <m5.objects.L1Cache_Controller.L1Cache_Controller object at 0x7f1907211eb8>, <m5.objects.L1Cache_Controller.L1Cache_Controller object at 0x7f190719ceb8>, <m5.objects.L1Cache_Controller.L1Cache_Controller object at 0x7f19071a4eb8>, <m5.objects.L1Cache_Controller.L1Cache_Controller object at 0x7f19071aeeb8>, <m5.objects.L1Cache_Controller.L1Cache_Controller object at 0x7f19071b6eb8>, <m5.objects.L1Cache_Controller.L1Cache_Controller object at 0x7f19071bfeb8>, <m5.objects.L1Cache_Controller.L1Cache_Controller object at 0x7f19071c9eb8>, <m5.objects.L1Cache_Controller.L1Cache_Controller object at 0x7f1907152eb8>, <m5.objects.L1Cache_Controller.L1Cache_Controller object at 0x7f190715beb8>, <m5.objects.L1Cache_Controller.L1Cache_Controller object at 0x7f1907165eb8>, <m5.objects.L1Cache_Controller.L1Cache_Controller object at 0x7f190716eeb8>, <m5.objects.L1Cache_Controller.L1Cache_Controller object at 0x7f1907176eb8>, <m5.objects.L1Cache_Controller.L1Cache_Controller object at 0x7f190717feb8>, <m5.objects.L1Cache_Controller.L1Cache_Controller object at 0x7f1907187eb8>, <m5.objects.L1Cache_Controller.L1Cache_Controller object at 0x7f1907190eb8>, <m5.objects.L1Cache_Controller.L1Cache_Controller object at 0x7f1907119eb8>, <m5.objects.L1Cache_Controller.L1Cache_Controller object at 0x7f1907122eb8>]

l2_caches(64)=[<m5.objects.L2Cache_Controller.L2Cache_Controller object at 0x7f190712bba8>, <m5.objects.L2Cache_Controller.L2Cache_Controller object at 0x7f1907134630>, <m5.objects.L2Cache_Controller.L2Cache_Controller object at 0x7f190713e0b8>, <m5.objects.L2Cache_Controller.L2Cache_Controller object at 0x7f190713eb00>, <m5.objects.L2Cache_Controller.L2Cache_Controller object at 0x7f1907146588>, <m5.objects.L2Cache_Controller.L2Cache_Controller object at 0x7f1907146fd0>, <m5.objects.L2Cache_Controller.L2Cache_Controller object at 0x7f1907150a58>, <m5.objects.L2Cache_Controller.L2Cache_Controller object at 0x7f19070d94e0>, <m5.objects.L2Cache_Controller.L2Cache_Controller object at 0x7f19070d9f28>, <m5.objects.L2Cache_Controller.L2Cache_Controller object at 0x7f19070e29b0>, <m5.objects.L2Cache_Controller.L2Cache_Controller object at 0x7f19070ea438>, <m5.objects.L2Cache_Controller.L2Cache_Controller object at 0x7f19070eae80>, <m5.objects.L2Cache_Controller.L2Cache_Controller object at 0x7f19070f2908>, <m5.objects.L2Cache_Controller.L2Cache_Controller object at 0x7f19070fc390>, <m5.objects.L2Cache_Controller.L2Cache_Controller object at 0x7f19070fcdd8>, <m5.objects.L2Cache_Controller.L2Cache_Controller object at 0x7f1907105860>, <m5.objects.L2Cache_Controller.L2Cache_Controller object at 0x7f190710e2e8>, <m5.objects.L2Cache_Controller.L2Cache_Controller object at 0x7f190710ed30>, <m5.objects.L2Cache_Controller.L2Cache_Controller object at 0x7f19070977b8>, <m5.objects.L2Cache_Controller.L2Cache_Controller object at 0x7f19070a0240>, <m5.objects.L2Cache_Controller.L2Cache_Controller object at 0x7f19070a0c88>, <m5.objects.L2Cache_Controller.L2Cache_Controller object at 0x7f19070a9710>, <m5.objects.L2Cache_Controller.L2Cache_Controller object at 0x7f19070b3198>, <m5.objects.L2Cache_Controller.L2Cache_Controller object at 0x7f19070b3be0>, <m5.objects.L2Cache_Controller.L2Cache_Controller object at 0x7f19070bb668>, <m5.objects.L2Cache_Controller.L2Cache_Controller object at 0x7f19070c50f0>, <m5.objects.L2Cache_Controller.L2Cache_Controller object at 0x7f19070c5b38>, <m5.objects.L2Cache_Controller.L2Cache_Controller object at 0x7f19070cd5c0>, <m5.objects.L2Cache_Controller.L2Cache_Controller object at 0x7f1907056048>, <m5.objects.L2Cache_Controller.L2Cache_Controller object at 0x7f1907056a90>, <m5.objects.L2Cache_Controller.L2Cache_Controller object at 0x7f1907060518>, <m5.objects.L2Cache_Controller.L2Cache_Controller object at 0x7f1907060f60>, <m5.objects.L2Cache_Controller.L2Cache_Controller object at 0x7f19070689e8>, <m5.objects.L2Cache_Controller.L2Cache_Controller object at 0x7f1907072470>, <m5.objects.L2Cache_Controller.L2Cache_Controller object at 0x7f1907072eb8>, <m5.objects.L2Cache_Controller.L2Cache_Controller object at 0x7f190707b940>, <m5.objects.L2Cache_Controller.L2Cache_Controller object at 0x7f19070823c8>, <m5.objects.L2Cache_Controller.L2Cache_Controller object at 0x7f1907082e10>, <m5.objects.L2Cache_Controller.L2Cache_Controller object at 0x7f190708c898>, <m5.objects.L2Cache_Controller.L2Cache_Controller object at 0x7f1907016320>, <m5.objects.L2Cache_Controller.L2Cache_Controller object at 0x7f1907016d68>, <m5.objects.L2Cache_Controller.L2Cache_Controller object at 0x7f190701e7f0>, <m5.objects.L2Cache_Controller.L2Cache_Controller object at 0x7f1907029278>, <m5.objects.L2Cache_Controller.L2Cache_Controller object at 0x7f1907029cc0>, <m5.objects.L2Cache_Controller.L2Cache_Controller object at 0x7f1907031748>, <m5.objects.L2Cache_Controller.L2Cache_Controller object at 0x7f190703a1d0>, <m5.objects.L2Cache_Controller.L2Cache_Controller object at 0x7f190703ac18>, <m5.objects.L2Cache_Controller.L2Cache_Controller object at 0x7f19070426a0>, <m5.objects.L2Cache_Controller.L2Cache_Controller object at 0x7f190704b128>, <m5.objects.L2Cache_Controller.L2Cache_Controller object at 0x7f190704bb70>, <m5.objects.L2Cache_Controller.L2Cache_Controller object at 0x7f1906fd55f8>, <m5.objects.L2Cache_Controller.L2Cache_Controller object at 0x7f1906fdc080>, <m5.objects.L2Cache_Controller.L2Cache_Controller object at 0x7f1906fdcac8>, <m5.objects.L2Cache_Controller.L2Cache_Controller object at 0x7f1906fe5550>, <m5.objects.L2Cache_Controller.L2Cache_Controller object at 0x7f1906fe5f98>, <m5.objects.L2Cache_Controller.L2Cache_Controller object at 0x7f1906fefa20>, <m5.objects.L2Cache_Controller.L2Cache_Controller object at 0x7f1906ff74a8>, <m5.objects.L2Cache_Controller.L2Cache_Controller object at 0x7f1906ff7ef0>, <m5.objects.L2Cache_Controller.L2Cache_Controller object at 0x7f1907001978>, <m5.objects.L2Cache_Controller.L2Cache_Controller object at 0x7f190700b400>, <m5.objects.L2Cache_Controller.L2Cache_Controller object at 0x7f190700be48>, <m5.objects.L2Cache_Controller.L2Cache_Controller object at 0x7f1906f938d0>, <m5.objects.L2Cache_Controller.L2Cache_Controller object at 0x7f1906f9c358>, <m5.objects.L2Cache_Controller.L2Cache_Controller object at 0x7f1906f9cda0>]

dirs(32)=[<m5.objects.Directory_Controller.Directory_Controller object at 0x7f1906fa4710>, <m5.objects.Directory_Controller.Directory_Controller object at 0x7f1906fa4940>, <m5.objects.Directory_Controller.Directory_Controller object at 0x7f1906fa4b70>, <m5.objects.Directory_Controller.Directory_Controller object at 0x7f1906fa4da0>, <m5.objects.Directory_Controller.Directory_Controller object at 0x7f1906fa4fd0>, <m5.objects.Directory_Controller.Directory_Controller object at 0x7f1906fb0240>, <m5.objects.Directory_Controller.Directory_Controller object at 0x7f1906fb0470>, <m5.objects.Directory_Controller.Directory_Controller object at 0x7f1906fb06a0>, <m5.objects.Directory_Controller.Directory_Controller object at 0x7f1906fb08d0>, <m5.objects.Directory_Controller.Directory_Controller object at 0x7f1906fb0b00>, <m5.objects.Directory_Controller.Directory_Controller object at 0x7f1906fb0d30>, <m5.objects.Directory_Controller.Directory_Controller object at 0x7f1906fb0f60>, <m5.objects.Directory_Controller.Directory_Controller object at 0x7f1906fbb1d0>, <m5.objects.Directory_Controller.Directory_Controller object at 0x7f1906fbb400>, <m5.objects.Directory_Controller.Directory_Controller object at 0x7f1906fbb630>, <m5.objects.Directory_Controller.Directory_Controller object at 0x7f1906fbb860>, <m5.objects.Directory_Controller.Directory_Controller object at 0x7f1906fbba90>, <m5.objects.Directory_Controller.Directory_Controller object at 0x7f1906fbbcc0>, <m5.objects.Directory_Controller.Directory_Controller object at 0x7f1906fbbef0>, <m5.objects.Directory_Controller.Directory_Controller object at 0x7f1906fc4160>, <m5.objects.Directory_Controller.Directory_Controller object at 0x7f1906fc4390>, <m5.objects.Directory_Controller.Directory_Controller object at 0x7f1906fc45c0>, <m5.objects.Directory_Controller.Directory_Controller object at 0x7f1906fc47f0>, <m5.objects.Directory_Controller.Directory_Controller object at 0x7f1906fc4a20>, <m5.objects.Directory_Controller.Directory_Controller object at 0x7f1906fc4c50>, <m5.objects.Directory_Controller.Directory_Controller object at 0x7f1906fc4e80>, <m5.objects.Directory_Controller.Directory_Controller object at 0x7f1906f520f0>, <m5.objects.Directory_Controller.Directory_Controller object at 0x7f1906f52320>, <m5.objects.Directory_Controller.Directory_Controller object at 0x7f1906f52550>, <m5.objects.Directory_Controller.Directory_Controller object at 0x7f1906f52780>, <m5.objects.Directory_Controller.Directory_Controller object at 0x7f1906f529b0>, <m5.objects.Directory_Controller.Directory_Controller object at 0x7f1906f52be0>]

dmas(2)=[<m5.objects.DMA_Controller.DMA_Controller object at 0x7f1906f375c0>, <m5.objects.DMA_Controller.DMA_Controller object at 0x7f1906f37be0>]

others(0)=[]

ingesting topologies_and_routing/nr_lists/kite_large_noci_nndbt_picky.nrl w/ # rotuers = 84
warn: Memory mode will be changed to atomic_noncaching
warn: Physical memory size specified is 32GB which is greater than 3GB.  Twice the number of memory controllers would be created.
