ValueError: cannot convert 'my_20r_4p_25ll_topo_noci_picky_mclb_cohmem_prioritized_doubley_memoryGHz' to latency
Error setting param SrcClockDomain.clock to my_20r_4p_25ll_topo_noci_picky_mclb_cohmem_prioritized_doubley_memoryGHz


At:
  build/X86/python/m5/util/convert.py(144): convert
  build/X86/python/m5/util/convert.py(164): toNum
  build/X86/python/m5/util/convert.py(208): anyToLatency
  build/X86/python/m5/params.py(1527): __init__
  build/X86/python/m5/params.py(209): convert
  build/X86/python/m5/params.py(336): <listcomp>
  build/X86/python/m5/params.py(336): convert
  build/X86/python/m5/SimObject.py(824): __setattr__
  build/X86/python/m5/SimObject.py(720): __init__
  /home/min/a/green456/netsmith_icpp24/auto_top_gem5/configs/topologies/FS_NoCI_EscapeVirtualNetworks.py(128): makeTopology
  /home/min/a/green456/netsmith_icpp24/auto_top_gem5/configs/ruby/Ruby.py(224): create_system
  configs/netsmith/netsmith_parsec.py(218): build_test_system
  configs/netsmith/netsmith_parsec.py(518): <module>
  build/X86/python/m5/main.py(434): main
gem5 Simulator System.  https://www.gem5.org
gem5 is copyrighted software; use the --copyright option for details.

gem5 version 22.0.0.2
gem5 compiled Apr 28 2024 22:23:45
gem5 started Jun 14 2024 17:26:32
gem5 executing on mnemosyne.ecn.purdue.edu, pid 16734
command line: ./build/X86/gem5.fast -d ./parsec_results/noci_32GBxDDR4/1000warmup_1000simul/ferret/my_20r_4p_25ll_topo_noci_picky_mclb_cohmem_prioritized_doubley_memory_hops_6vns/ configs/netsmith/netsmith_parsec.py -I 1000 --insts_after_warmup 1000 --benchmark_parsec ferret -r 1 --checkpoint-dir ./parsec_noci_checkpoints/roi_checkpoint/system_5/ferret --kernel ./parsec_disk_image/vmlinux-5.4.49 --disk-image ./parsec_disk_image/x86-parsec --router_map_file ./topologies_and_routing/topo_maps/noci/my_20r_4p_25ll_topo_noci.map --flat_vn_map_file topologies_and_routing/vn_maps/my_20r_4p_25ll_topo_noci_picky_mclb_cohmem_prioritized_doubley_memory_hops_6vns.vn --flat_nr_map_file topologies_and_routing/nr_lists/my_20r_4p_25ll_topo_noci_picky_mclb_cohmem_prioritized_doubley_memory.nrl --noi_clk my_20r_4p_25ll_topo_noci_picky_mclb_cohmem_prioritized_doubley_memoryGHz --vcs-per-vnet 10 --evn_n_deadlock_free 1 --evn_min_n_deadlock_free 6 --evn_deadlock_partition 4 --topology FS_NoCI_EscapeVirtualNetworks --noi_routers 20 --noc_clk 3.8GHz --sys-clock 3.8GHz --cpu-clock 3.8GHz --ruby-clock 3.8GHz --num-cpus 64 --mem_or_coh mem --num-dirs 32 --caches --num-l2caches 64 --l2_size 2MB --num_chiplets 4 --mem-size 32GB --ruby --network garnet --link-width-bits 64 --cpu-type X86O3CPU --routing-algorithm 2 --use_escape_vns --mem-type DDR4_2400_16x4

l1_caches(64)=[<m5.objects.L1Cache_Controller.L1Cache_Controller object at 0x7f4814effef0>, <m5.objects.L1Cache_Controller.L1Cache_Controller object at 0x7f4814f07f28>, <m5.objects.L1Cache_Controller.L1Cache_Controller object at 0x7f4814f10f28>, <m5.objects.L1Cache_Controller.L1Cache_Controller object at 0x7f4814f19f28>, <m5.objects.L1Cache_Controller.L1Cache_Controller object at 0x7f4814f22f28>, <m5.objects.L1Cache_Controller.L1Cache_Controller object at 0x7f4814eabf28>, <m5.objects.L1Cache_Controller.L1Cache_Controller object at 0x7f4814eb4f28>, <m5.objects.L1Cache_Controller.L1Cache_Controller object at 0x7f4814ebef28>, <m5.objects.L1Cache_Controller.L1Cache_Controller object at 0x7f4814ec7f28>, <m5.objects.L1Cache_Controller.L1Cache_Controller object at 0x7f4814ecef28>, <m5.objects.L1Cache_Controller.L1Cache_Controller object at 0x7f4814ed9f28>, <m5.objects.L1Cache_Controller.L1Cache_Controller object at 0x7f4814ee1f28>, <m5.objects.L1Cache_Controller.L1Cache_Controller object at 0x7f4814e6af28>, <m5.objects.L1Cache_Controller.L1Cache_Controller object at 0x7f4814e73f28>, <m5.objects.L1Cache_Controller.L1Cache_Controller object at 0x7f4814e7cf28>, <m5.objects.L1Cache_Controller.L1Cache_Controller object at 0x7f4814e86f28>, <m5.objects.L1Cache_Controller.L1Cache_Controller object at 0x7f4814e8ff28>, <m5.objects.L1Cache_Controller.L1Cache_Controller object at 0x7f4814e98f28>, <m5.objects.L1Cache_Controller.L1Cache_Controller object at 0x7f4814ea0f28>, <m5.objects.L1Cache_Controller.L1Cache_Controller object at 0x7f4814e2bf28>, <m5.objects.L1Cache_Controller.L1Cache_Controller object at 0x7f4814e33f28>, <m5.objects.L1Cache_Controller.L1Cache_Controller object at 0x7f4814e3df28>, <m5.objects.L1Cache_Controller.L1Cache_Controller object at 0x7f4814e45f28>, <m5.objects.L1Cache_Controller.L1Cache_Controller object at 0x7f4814e4ff28>, <m5.objects.L1Cache_Controller.L1Cache_Controller object at 0x7f4814e58f28>, <m5.objects.L1Cache_Controller.L1Cache_Controller object at 0x7f4814e61f28>, <m5.objects.L1Cache_Controller.L1Cache_Controller object at 0x7f4814deaf28>, <m5.objects.L1Cache_Controller.L1Cache_Controller object at 0x7f4814df2f28>, <m5.objects.L1Cache_Controller.L1Cache_Controller object at 0x7f4814dfcf28>, <m5.objects.L1Cache_Controller.L1Cache_Controller object at 0x7f4814e05f28>, <m5.objects.L1Cache_Controller.L1Cache_Controller object at 0x7f4814e0ff28>, <m5.objects.L1Cache_Controller.L1Cache_Controller object at 0x7f4814e18f28>, <m5.objects.L1Cache_Controller.L1Cache_Controller object at 0x7f4814e22f28>, <m5.objects.L1Cache_Controller.L1Cache_Controller object at 0x7f4814daaf28>, <m5.objects.L1Cache_Controller.L1Cache_Controller object at 0x7f4814db1f28>, <m5.objects.L1Cache_Controller.L1Cache_Controller object at 0x7f4814dbcf28>, <m5.objects.L1Cache_Controller.L1Cache_Controller object at 0x7f4814dc4f28>, <m5.objects.L1Cache_Controller.L1Cache_Controller object at 0x7f4814dcef28>, <m5.objects.L1Cache_Controller.L1Cache_Controller object at 0x7f4814dd6f28>, <m5.objects.L1Cache_Controller.L1Cache_Controller object at 0x7f4814de0f28>, <m5.objects.L1Cache_Controller.L1Cache_Controller object at 0x7f4814de8f28>, <m5.objects.L1Cache_Controller.L1Cache_Controller object at 0x7f4814d72f28>, <m5.objects.L1Cache_Controller.L1Cache_Controller object at 0x7f4814d7bf28>, <m5.objects.L1Cache_Controller.L1Cache_Controller object at 0x7f4814d86f28>, <m5.objects.L1Cache_Controller.L1Cache_Controller object at 0x7f4814d8ff28>, <m5.objects.L1Cache_Controller.L1Cache_Controller object at 0x7f4814d97f28>, <m5.objects.L1Cache_Controller.L1Cache_Controller object at 0x7f4814da1f28>, <m5.objects.L1Cache_Controller.L1Cache_Controller object at 0x7f4814da9f28>, <m5.objects.L1Cache_Controller.L1Cache_Controller object at 0x7f4814d34f28>, <m5.objects.L1Cache_Controller.L1Cache_Controller object at 0x7f4814d3cf28>, <m5.objects.L1Cache_Controller.L1Cache_Controller object at 0x7f4814d46f28>, <m5.objects.L1Cache_Controller.L1Cache_Controller object at 0x7f4814d4ef28>, <m5.objects.L1Cache_Controller.L1Cache_Controller object at 0x7f4814d57f28>, <m5.objects.L1Cache_Controller.L1Cache_Controller object at 0x7f4814d60f28>, <m5.objects.L1Cache_Controller.L1Cache_Controller object at 0x7f4814d69f28>, <m5.objects.L1Cache_Controller.L1Cache_Controller object at 0x7f4814cf3f28>, <m5.objects.L1Cache_Controller.L1Cache_Controller object at 0x7f4814cfbf28>, <m5.objects.L1Cache_Controller.L1Cache_Controller object at 0x7f4814d06f28>, <m5.objects.L1Cache_Controller.L1Cache_Controller object at 0x7f4814d0ef28>, <m5.objects.L1Cache_Controller.L1Cache_Controller object at 0x7f4814d15f28>, <m5.objects.L1Cache_Controller.L1Cache_Controller object at 0x7f4814d1ff28>, <m5.objects.L1Cache_Controller.L1Cache_Controller object at 0x7f4814d28f28>, <m5.objects.L1Cache_Controller.L1Cache_Controller object at 0x7f4814cb1f28>, <m5.objects.L1Cache_Controller.L1Cache_Controller object at 0x7f4814cbaf28>]

l2_caches(64)=[<m5.objects.L2Cache_Controller.L2Cache_Controller object at 0x7f4814cc3c18>, <m5.objects.L2Cache_Controller.L2Cache_Controller object at 0x7f4814ccb6a0>, <m5.objects.L2Cache_Controller.L2Cache_Controller object at 0x7f4814cd5128>, <m5.objects.L2Cache_Controller.L2Cache_Controller object at 0x7f4814cd5b70>, <m5.objects.L2Cache_Controller.L2Cache_Controller object at 0x7f4814cdd5f8>, <m5.objects.L2Cache_Controller.L2Cache_Controller object at 0x7f4814ce7080>, <m5.objects.L2Cache_Controller.L2Cache_Controller object at 0x7f4814ce7ac8>, <m5.objects.L2Cache_Controller.L2Cache_Controller object at 0x7f4814c6f550>, <m5.objects.L2Cache_Controller.L2Cache_Controller object at 0x7f4814c6ff98>, <m5.objects.L2Cache_Controller.L2Cache_Controller object at 0x7f4814c77a20>, <m5.objects.L2Cache_Controller.L2Cache_Controller object at 0x7f4814c814a8>, <m5.objects.L2Cache_Controller.L2Cache_Controller object at 0x7f4814c81ef0>, <m5.objects.L2Cache_Controller.L2Cache_Controller object at 0x7f4814c89978>, <m5.objects.L2Cache_Controller.L2Cache_Controller object at 0x7f4814c93400>, <m5.objects.L2Cache_Controller.L2Cache_Controller object at 0x7f4814c93e48>, <m5.objects.L2Cache_Controller.L2Cache_Controller object at 0x7f4814c9c8d0>, <m5.objects.L2Cache_Controller.L2Cache_Controller object at 0x7f4814ca4358>, <m5.objects.L2Cache_Controller.L2Cache_Controller object at 0x7f4814ca4da0>, <m5.objects.L2Cache_Controller.L2Cache_Controller object at 0x7f4814c2e828>, <m5.objects.L2Cache_Controller.L2Cache_Controller object at 0x7f4814c372b0>, <m5.objects.L2Cache_Controller.L2Cache_Controller object at 0x7f4814c37cf8>, <m5.objects.L2Cache_Controller.L2Cache_Controller object at 0x7f4814c3f780>, <m5.objects.L2Cache_Controller.L2Cache_Controller object at 0x7f4814c4a208>, <m5.objects.L2Cache_Controller.L2Cache_Controller object at 0x7f4814c4ac50>, <m5.objects.L2Cache_Controller.L2Cache_Controller object at 0x7f4814c526d8>, <m5.objects.L2Cache_Controller.L2Cache_Controller object at 0x7f4814c5c160>, <m5.objects.L2Cache_Controller.L2Cache_Controller object at 0x7f4814c5cba8>, <m5.objects.L2Cache_Controller.L2Cache_Controller object at 0x7f4814c64630>, <m5.objects.L2Cache_Controller.L2Cache_Controller object at 0x7f4814bed0b8>, <m5.objects.L2Cache_Controller.L2Cache_Controller object at 0x7f4814bedb00>, <m5.objects.L2Cache_Controller.L2Cache_Controller object at 0x7f4814bf7588>, <m5.objects.L2Cache_Controller.L2Cache_Controller object at 0x7f4814bf7fd0>, <m5.objects.L2Cache_Controller.L2Cache_Controller object at 0x7f4814c00a58>, <m5.objects.L2Cache_Controller.L2Cache_Controller object at 0x7f4814c094e0>, <m5.objects.L2Cache_Controller.L2Cache_Controller object at 0x7f4814c09f28>, <m5.objects.L2Cache_Controller.L2Cache_Controller object at 0x7f4814c129b0>, <m5.objects.L2Cache_Controller.L2Cache_Controller object at 0x7f4814c18438>, <m5.objects.L2Cache_Controller.L2Cache_Controller object at 0x7f4814c18e80>, <m5.objects.L2Cache_Controller.L2Cache_Controller object at 0x7f4814c24908>, <m5.objects.L2Cache_Controller.L2Cache_Controller object at 0x7f4814bac390>, <m5.objects.L2Cache_Controller.L2Cache_Controller object at 0x7f4814bacdd8>, <m5.objects.L2Cache_Controller.L2Cache_Controller object at 0x7f4814bb5860>, <m5.objects.L2Cache_Controller.L2Cache_Controller object at 0x7f4814bbe2e8>, <m5.objects.L2Cache_Controller.L2Cache_Controller object at 0x7f4814bbed30>, <m5.objects.L2Cache_Controller.L2Cache_Controller object at 0x7f4814bc67b8>, <m5.objects.L2Cache_Controller.L2Cache_Controller object at 0x7f4814bd0240>, <m5.objects.L2Cache_Controller.L2Cache_Controller object at 0x7f4814bd0c88>, <m5.objects.L2Cache_Controller.L2Cache_Controller object at 0x7f4814bd9710>, <m5.objects.L2Cache_Controller.L2Cache_Controller object at 0x7f4814be1198>, <m5.objects.L2Cache_Controller.L2Cache_Controller object at 0x7f4814be1be0>, <m5.objects.L2Cache_Controller.L2Cache_Controller object at 0x7f4814b6b668>, <m5.objects.L2Cache_Controller.L2Cache_Controller object at 0x7f4814b730f0>, <m5.objects.L2Cache_Controller.L2Cache_Controller object at 0x7f4814b73b38>, <m5.objects.L2Cache_Controller.L2Cache_Controller object at 0x7f4814b7b5c0>, <m5.objects.L2Cache_Controller.L2Cache_Controller object at 0x7f4814b86048>, <m5.objects.L2Cache_Controller.L2Cache_Controller object at 0x7f4814b86a90>, <m5.objects.L2Cache_Controller.L2Cache_Controller object at 0x7f4814b8e518>, <m5.objects.L2Cache_Controller.L2Cache_Controller object at 0x7f4814b8ef60>, <m5.objects.L2Cache_Controller.L2Cache_Controller object at 0x7f4814b989e8>, <m5.objects.L2Cache_Controller.L2Cache_Controller object at 0x7f4814ba2470>, <m5.objects.L2Cache_Controller.L2Cache_Controller object at 0x7f4814ba2eb8>, <m5.objects.L2Cache_Controller.L2Cache_Controller object at 0x7f4814b2a940>, <m5.objects.L2Cache_Controller.L2Cache_Controller object at 0x7f4814b333c8>, <m5.objects.L2Cache_Controller.L2Cache_Controller object at 0x7f4814b33e10>]

dirs(32)=[<m5.objects.Directory_Controller.Directory_Controller object at 0x7f4814b3b780>, <m5.objects.Directory_Controller.Directory_Controller object at 0x7f4814b3b9b0>, <m5.objects.Directory_Controller.Directory_Controller object at 0x7f4814b3bbe0>, <m5.objects.Directory_Controller.Directory_Controller object at 0x7f4814b3be10>, <m5.objects.Directory_Controller.Directory_Controller object at 0x7f4814b47080>, <m5.objects.Directory_Controller.Directory_Controller object at 0x7f4814b472b0>, <m5.objects.Directory_Controller.Directory_Controller object at 0x7f4814b474e0>, <m5.objects.Directory_Controller.Directory_Controller object at 0x7f4814b47710>, <m5.objects.Directory_Controller.Directory_Controller object at 0x7f4814b47940>, <m5.objects.Directory_Controller.Directory_Controller object at 0x7f4814b47b70>, <m5.objects.Directory_Controller.Directory_Controller object at 0x7f4814b47da0>, <m5.objects.Directory_Controller.Directory_Controller object at 0x7f4814b47fd0>, <m5.objects.Directory_Controller.Directory_Controller object at 0x7f4814b51240>, <m5.objects.Directory_Controller.Directory_Controller object at 0x7f4814b51470>, <m5.objects.Directory_Controller.Directory_Controller object at 0x7f4814b516a0>, <m5.objects.Directory_Controller.Directory_Controller object at 0x7f4814b518d0>, <m5.objects.Directory_Controller.Directory_Controller object at 0x7f4814b51b00>, <m5.objects.Directory_Controller.Directory_Controller object at 0x7f4814b51d30>, <m5.objects.Directory_Controller.Directory_Controller object at 0x7f4814b51f60>, <m5.objects.Directory_Controller.Directory_Controller object at 0x7f4814b5d1d0>, <m5.objects.Directory_Controller.Directory_Controller object at 0x7f4814b5d400>, <m5.objects.Directory_Controller.Directory_Controller object at 0x7f4814b5d630>, <m5.objects.Directory_Controller.Directory_Controller object at 0x7f4814b5d860>, <m5.objects.Directory_Controller.Directory_Controller object at 0x7f4814b5da90>, <m5.objects.Directory_Controller.Directory_Controller object at 0x7f4814b5dcc0>, <m5.objects.Directory_Controller.Directory_Controller object at 0x7f4814b5def0>, <m5.objects.Directory_Controller.Directory_Controller object at 0x7f4814b69160>, <m5.objects.Directory_Controller.Directory_Controller object at 0x7f4814b69390>, <m5.objects.Directory_Controller.Directory_Controller object at 0x7f4814b695c0>, <m5.objects.Directory_Controller.Directory_Controller object at 0x7f4814b697f0>, <m5.objects.Directory_Controller.Directory_Controller object at 0x7f4814b69a20>, <m5.objects.Directory_Controller.Directory_Controller object at 0x7f4814b69c50>]

dmas(2)=[<m5.objects.DMA_Controller.DMA_Controller object at 0x7f4814acd630>, <m5.objects.DMA_Controller.DMA_Controller object at 0x7f4814acdc50>]

others(0)=[]

ingesting topologies_and_routing/nr_lists/my_20r_4p_25ll_topo_noci_picky_mclb_cohmem_prioritized_doubley_memory.nrl w/ # rotuers = 84
ingesting topologies_and_routing/vn_maps/my_20r_4p_25ll_topo_noci_picky_mclb_cohmem_prioritized_doubley_memory_hops_6vns.vn
warn: Memory mode will be changed to atomic_noncaching
warn: Physical memory size specified is 32GB which is greater than 3GB.  Twice the number of memory controllers would be created.
