FileNotFoundError: [Errno 2] No such file or directory: 'topologies_and_routing/nr_lists/kite_med_noci_nndbt_picky.nrl'

At:
  /home/min/a/green456/netsmith_icpp24/auto_top_gem5/configs/topologies/FS_NoCI_EscapeVirtualNetworks.py(570): ingest_flat_map_list
  /home/min/a/green456/netsmith_icpp24/auto_top_gem5/configs/topologies/FS_NoCI_EscapeVirtualNetworks.py(108): makeTopology
  /home/min/a/green456/netsmith_icpp24/auto_top_gem5/configs/ruby/Ruby.py(224): create_system
  configs/netsmith/netsmith_parsec.py(218): build_test_system
  configs/netsmith/netsmith_parsec.py(518): <module>
  build/X86/python/m5/main.py(434): main
gem5 Simulator System.  https://www.gem5.org
gem5 is copyrighted software; use the --copyright option for details.

gem5 version 22.0.0.2
gem5 compiled Apr 28 2024 22:23:45
gem5 started Jun 14 2024 13:56:07
gem5 executing on mnemosyne.ecn.purdue.edu, pid 7445
command line: ./build/X86/gem5.fast -d ./parsec_results/noci_32GBxDDR4_2envs_38GHz_2MBl2_allthreads_64lwidth_sameflowpriority_lwbufadj/1000warmup_1000simul/ferret/kite_med_noci_nndbt_picky_none/ configs/netsmith/netsmith_parsec.py -I 1000 --insts_after_warmup 1000 --benchmark_parsec ferret -r 1 --checkpoint-dir ./parsec_noci_checkpoints/roi_checkpoint/system_5/ferret --router_map_file ./topologies_and_routing/topo_maps/noci/kite_med_noci.map --flat_vn_map_file topologies_and_routing/vn_maps/kite_med_noci_nndbt_picky_none_2vns.vn --flat_nr_map_file topologies_and_routing/nr_lists/kite_med_noci_nndbt_picky.nrl --topology FS_NoCI_EscapeVirtualNetworks --noi_routers 20 --noc_clk 3.8GHz --sys-clock 3.8GHz --cpu-clock 3.8GHz --ruby-clock 3.8GHz --noi_clk 3.0GHz --num-cpus 64 --mem_or_coh mem --num-dirs 32 --caches --num-l2caches 64 --l2_size 2MB --num_chiplets 4 --mem-size 32GB --ruby --network garnet --link-width-bits 64 --kernel /home/yara/mithuna2/green456/netsmith_autotop/auto_top_gem5/parsec_disk_image/vmlinux-5.4.49 --disk-image /home/yara/mithuna2/green456/netsmith_autotop/auto_top_gem5/parsec_disk_image/x86-parsec --cpu-type X86O3CPU --routing-algorithm 2 --use_escape_vns --vcs-per-vnet 10 --evn_n_deadlock_free 1 --evn_min_n_deadlock_free 2 --evn_deadlock_partition 8 --mem-type DDR4_2400_16x4

l1_caches(64)=[<m5.objects.L1Cache_Controller.L1Cache_Controller object at 0x7f0bb9320eb8>, <m5.objects.L1Cache_Controller.L1Cache_Controller object at 0x7f0bb9324f28>, <m5.objects.L1Cache_Controller.L1Cache_Controller object at 0x7f0bb9330f28>, <m5.objects.L1Cache_Controller.L1Cache_Controller object at 0x7f0bb9339f28>, <m5.objects.L1Cache_Controller.L1Cache_Controller object at 0x7f0bb9342f28>, <m5.objects.L1Cache_Controller.L1Cache_Controller object at 0x7f0bb92cbf28>, <m5.objects.L1Cache_Controller.L1Cache_Controller object at 0x7f0bb92d5f28>, <m5.objects.L1Cache_Controller.L1Cache_Controller object at 0x7f0bb92def28>, <m5.objects.L1Cache_Controller.L1Cache_Controller object at 0x7f0bb92e7f28>, <m5.objects.L1Cache_Controller.L1Cache_Controller object at 0x7f0bb92eff28>, <m5.objects.L1Cache_Controller.L1Cache_Controller object at 0x7f0bb92f9f28>, <m5.objects.L1Cache_Controller.L1Cache_Controller object at 0x7f0bb9301f28>, <m5.objects.L1Cache_Controller.L1Cache_Controller object at 0x7f0bb928af28>, <m5.objects.L1Cache_Controller.L1Cache_Controller object at 0x7f0bb9293f28>, <m5.objects.L1Cache_Controller.L1Cache_Controller object at 0x7f0bb929cf28>, <m5.objects.L1Cache_Controller.L1Cache_Controller object at 0x7f0bb92a6f28>, <m5.objects.L1Cache_Controller.L1Cache_Controller object at 0x7f0bb92aff28>, <m5.objects.L1Cache_Controller.L1Cache_Controller object at 0x7f0bb92b8f28>, <m5.objects.L1Cache_Controller.L1Cache_Controller object at 0x7f0bb92c1f28>, <m5.objects.L1Cache_Controller.L1Cache_Controller object at 0x7f0bb924bf28>, <m5.objects.L1Cache_Controller.L1Cache_Controller object at 0x7f0bb9253f28>, <m5.objects.L1Cache_Controller.L1Cache_Controller object at 0x7f0bb925df28>, <m5.objects.L1Cache_Controller.L1Cache_Controller object at 0x7f0bb9265f28>, <m5.objects.L1Cache_Controller.L1Cache_Controller object at 0x7f0bb926ef28>, <m5.objects.L1Cache_Controller.L1Cache_Controller object at 0x7f0bb9278f28>, <m5.objects.L1Cache_Controller.L1Cache_Controller object at 0x7f0bb9281f28>, <m5.objects.L1Cache_Controller.L1Cache_Controller object at 0x7f0bb920af28>, <m5.objects.L1Cache_Controller.L1Cache_Controller object at 0x7f0bb9212f28>, <m5.objects.L1Cache_Controller.L1Cache_Controller object at 0x7f0bb921cf28>, <m5.objects.L1Cache_Controller.L1Cache_Controller object at 0x7f0bb9225f28>, <m5.objects.L1Cache_Controller.L1Cache_Controller object at 0x7f0bb9230f28>, <m5.objects.L1Cache_Controller.L1Cache_Controller object at 0x7f0bb9238f28>, <m5.objects.L1Cache_Controller.L1Cache_Controller object at 0x7f0bb9242f28>, <m5.objects.L1Cache_Controller.L1Cache_Controller object at 0x7f0bb91caf28>, <m5.objects.L1Cache_Controller.L1Cache_Controller object at 0x7f0bb91d2f28>, <m5.objects.L1Cache_Controller.L1Cache_Controller object at 0x7f0bb91dcf28>, <m5.objects.L1Cache_Controller.L1Cache_Controller object at 0x7f0bb91e4f28>, <m5.objects.L1Cache_Controller.L1Cache_Controller object at 0x7f0bb91eef28>, <m5.objects.L1Cache_Controller.L1Cache_Controller object at 0x7f0bb91f6f28>, <m5.objects.L1Cache_Controller.L1Cache_Controller object at 0x7f0bb9200f28>, <m5.objects.L1Cache_Controller.L1Cache_Controller object at 0x7f0bb9208f28>, <m5.objects.L1Cache_Controller.L1Cache_Controller object at 0x7f0bb9192f28>, <m5.objects.L1Cache_Controller.L1Cache_Controller object at 0x7f0bb919bf28>, <m5.objects.L1Cache_Controller.L1Cache_Controller object at 0x7f0bb91a6f28>, <m5.objects.L1Cache_Controller.L1Cache_Controller object at 0x7f0bb91aff28>, <m5.objects.L1Cache_Controller.L1Cache_Controller object at 0x7f0bb91b7f28>, <m5.objects.L1Cache_Controller.L1Cache_Controller object at 0x7f0bb91c1f28>, <m5.objects.L1Cache_Controller.L1Cache_Controller object at 0x7f0bb91c9f28>, <m5.objects.L1Cache_Controller.L1Cache_Controller object at 0x7f0bb9154f28>, <m5.objects.L1Cache_Controller.L1Cache_Controller object at 0x7f0bb915cf28>, <m5.objects.L1Cache_Controller.L1Cache_Controller object at 0x7f0bb9166f28>, <m5.objects.L1Cache_Controller.L1Cache_Controller object at 0x7f0bb916ef28>, <m5.objects.L1Cache_Controller.L1Cache_Controller object at 0x7f0bb9177f28>, <m5.objects.L1Cache_Controller.L1Cache_Controller object at 0x7f0bb9180f28>, <m5.objects.L1Cache_Controller.L1Cache_Controller object at 0x7f0bb910af28>, <m5.objects.L1Cache_Controller.L1Cache_Controller object at 0x7f0bb9113f28>, <m5.objects.L1Cache_Controller.L1Cache_Controller object at 0x7f0bb911bf28>, <m5.objects.L1Cache_Controller.L1Cache_Controller object at 0x7f0bb9126f28>, <m5.objects.L1Cache_Controller.L1Cache_Controller object at 0x7f0bb912ef28>, <m5.objects.L1Cache_Controller.L1Cache_Controller object at 0x7f0bb9137f28>, <m5.objects.L1Cache_Controller.L1Cache_Controller object at 0x7f0bb913ff28>, <m5.objects.L1Cache_Controller.L1Cache_Controller object at 0x7f0bb9148f28>, <m5.objects.L1Cache_Controller.L1Cache_Controller object at 0x7f0bb90d1f28>, <m5.objects.L1Cache_Controller.L1Cache_Controller object at 0x7f0bb90daf28>]

l2_caches(64)=[<m5.objects.L2Cache_Controller.L2Cache_Controller object at 0x7f0bb90e3c18>, <m5.objects.L2Cache_Controller.L2Cache_Controller object at 0x7f0bb90ec6a0>, <m5.objects.L2Cache_Controller.L2Cache_Controller object at 0x7f0bb90f6128>, <m5.objects.L2Cache_Controller.L2Cache_Controller object at 0x7f0bb90f6b70>, <m5.objects.L2Cache_Controller.L2Cache_Controller object at 0x7f0bb90fe5f8>, <m5.objects.L2Cache_Controller.L2Cache_Controller object at 0x7f0bb9108080>, <m5.objects.L2Cache_Controller.L2Cache_Controller object at 0x7f0bb9108ac8>, <m5.objects.L2Cache_Controller.L2Cache_Controller object at 0x7f0bb9090550>, <m5.objects.L2Cache_Controller.L2Cache_Controller object at 0x7f0bb9090f98>, <m5.objects.L2Cache_Controller.L2Cache_Controller object at 0x7f0bb9098a20>, <m5.objects.L2Cache_Controller.L2Cache_Controller object at 0x7f0bb90a24a8>, <m5.objects.L2Cache_Controller.L2Cache_Controller object at 0x7f0bb90a2ef0>, <m5.objects.L2Cache_Controller.L2Cache_Controller object at 0x7f0bb90aa978>, <m5.objects.L2Cache_Controller.L2Cache_Controller object at 0x7f0bb90b4400>, <m5.objects.L2Cache_Controller.L2Cache_Controller object at 0x7f0bb90b4e48>, <m5.objects.L2Cache_Controller.L2Cache_Controller object at 0x7f0bb90bd8d0>, <m5.objects.L2Cache_Controller.L2Cache_Controller object at 0x7f0bb90c5358>, <m5.objects.L2Cache_Controller.L2Cache_Controller object at 0x7f0bb90c5da0>, <m5.objects.L2Cache_Controller.L2Cache_Controller object at 0x7f0bb904f828>, <m5.objects.L2Cache_Controller.L2Cache_Controller object at 0x7f0bb90582b0>, <m5.objects.L2Cache_Controller.L2Cache_Controller object at 0x7f0bb9058cf8>, <m5.objects.L2Cache_Controller.L2Cache_Controller object at 0x7f0bb9060780>, <m5.objects.L2Cache_Controller.L2Cache_Controller object at 0x7f0bb906b208>, <m5.objects.L2Cache_Controller.L2Cache_Controller object at 0x7f0bb906bc50>, <m5.objects.L2Cache_Controller.L2Cache_Controller object at 0x7f0bb90736d8>, <m5.objects.L2Cache_Controller.L2Cache_Controller object at 0x7f0bb907d160>, <m5.objects.L2Cache_Controller.L2Cache_Controller object at 0x7f0bb907dba8>, <m5.objects.L2Cache_Controller.L2Cache_Controller object at 0x7f0bb9085630>, <m5.objects.L2Cache_Controller.L2Cache_Controller object at 0x7f0bb900e0b8>, <m5.objects.L2Cache_Controller.L2Cache_Controller object at 0x7f0bb900eb00>, <m5.objects.L2Cache_Controller.L2Cache_Controller object at 0x7f0bb9018588>, <m5.objects.L2Cache_Controller.L2Cache_Controller object at 0x7f0bb9018fd0>, <m5.objects.L2Cache_Controller.L2Cache_Controller object at 0x7f0bb9020a58>, <m5.objects.L2Cache_Controller.L2Cache_Controller object at 0x7f0bb902a4e0>, <m5.objects.L2Cache_Controller.L2Cache_Controller object at 0x7f0bb902af28>, <m5.objects.L2Cache_Controller.L2Cache_Controller object at 0x7f0bb90339b0>, <m5.objects.L2Cache_Controller.L2Cache_Controller object at 0x7f0bb9039438>, <m5.objects.L2Cache_Controller.L2Cache_Controller object at 0x7f0bb9039e80>, <m5.objects.L2Cache_Controller.L2Cache_Controller object at 0x7f0bb9045908>, <m5.objects.L2Cache_Controller.L2Cache_Controller object at 0x7f0bb8fcd390>, <m5.objects.L2Cache_Controller.L2Cache_Controller object at 0x7f0bb8fcddd8>, <m5.objects.L2Cache_Controller.L2Cache_Controller object at 0x7f0bb8fd6860>, <m5.objects.L2Cache_Controller.L2Cache_Controller object at 0x7f0bb8fe02e8>, <m5.objects.L2Cache_Controller.L2Cache_Controller object at 0x7f0bb8fe0d30>, <m5.objects.L2Cache_Controller.L2Cache_Controller object at 0x7f0bb8fe77b8>, <m5.objects.L2Cache_Controller.L2Cache_Controller object at 0x7f0bb8ff1240>, <m5.objects.L2Cache_Controller.L2Cache_Controller object at 0x7f0bb8ff1c88>, <m5.objects.L2Cache_Controller.L2Cache_Controller object at 0x7f0bb8ffa710>, <m5.objects.L2Cache_Controller.L2Cache_Controller object at 0x7f0bb9002198>, <m5.objects.L2Cache_Controller.L2Cache_Controller object at 0x7f0bb9002be0>, <m5.objects.L2Cache_Controller.L2Cache_Controller object at 0x7f0bb8f8c668>, <m5.objects.L2Cache_Controller.L2Cache_Controller object at 0x7f0bb8f940f0>, <m5.objects.L2Cache_Controller.L2Cache_Controller object at 0x7f0bb8f94b38>, <m5.objects.L2Cache_Controller.L2Cache_Controller object at 0x7f0bb8f9c5c0>, <m5.objects.L2Cache_Controller.L2Cache_Controller object at 0x7f0bb8fa7048>, <m5.objects.L2Cache_Controller.L2Cache_Controller object at 0x7f0bb8fa7a90>, <m5.objects.L2Cache_Controller.L2Cache_Controller object at 0x7f0bb8faf518>, <m5.objects.L2Cache_Controller.L2Cache_Controller object at 0x7f0bb8faff60>, <m5.objects.L2Cache_Controller.L2Cache_Controller object at 0x7f0bb8fb99e8>, <m5.objects.L2Cache_Controller.L2Cache_Controller object at 0x7f0bb8fc3470>, <m5.objects.L2Cache_Controller.L2Cache_Controller object at 0x7f0bb8fc3eb8>, <m5.objects.L2Cache_Controller.L2Cache_Controller object at 0x7f0bb8f4b940>, <m5.objects.L2Cache_Controller.L2Cache_Controller object at 0x7f0bb8f543c8>, <m5.objects.L2Cache_Controller.L2Cache_Controller object at 0x7f0bb8f54e10>]

dirs(32)=[<m5.objects.Directory_Controller.Directory_Controller object at 0x7f0bb8f5c780>, <m5.objects.Directory_Controller.Directory_Controller object at 0x7f0bb8f5c9b0>, <m5.objects.Directory_Controller.Directory_Controller object at 0x7f0bb8f5cbe0>, <m5.objects.Directory_Controller.Directory_Controller object at 0x7f0bb8f5ce10>, <m5.objects.Directory_Controller.Directory_Controller object at 0x7f0bb8f68080>, <m5.objects.Directory_Controller.Directory_Controller object at 0x7f0bb8f682b0>, <m5.objects.Directory_Controller.Directory_Controller object at 0x7f0bb8f684e0>, <m5.objects.Directory_Controller.Directory_Controller object at 0x7f0bb8f68710>, <m5.objects.Directory_Controller.Directory_Controller object at 0x7f0bb8f68940>, <m5.objects.Directory_Controller.Directory_Controller object at 0x7f0bb8f68b70>, <m5.objects.Directory_Controller.Directory_Controller object at 0x7f0bb8f68da0>, <m5.objects.Directory_Controller.Directory_Controller object at 0x7f0bb8f68fd0>, <m5.objects.Directory_Controller.Directory_Controller object at 0x7f0bb8f72240>, <m5.objects.Directory_Controller.Directory_Controller object at 0x7f0bb8f72470>, <m5.objects.Directory_Controller.Directory_Controller object at 0x7f0bb8f726a0>, <m5.objects.Directory_Controller.Directory_Controller object at 0x7f0bb8f728d0>, <m5.objects.Directory_Controller.Directory_Controller object at 0x7f0bb8f72b00>, <m5.objects.Directory_Controller.Directory_Controller object at 0x7f0bb8f72d30>, <m5.objects.Directory_Controller.Directory_Controller object at 0x7f0bb8f72f60>, <m5.objects.Directory_Controller.Directory_Controller object at 0x7f0bb8f7e1d0>, <m5.objects.Directory_Controller.Directory_Controller object at 0x7f0bb8f7e400>, <m5.objects.Directory_Controller.Directory_Controller object at 0x7f0bb8f7e630>, <m5.objects.Directory_Controller.Directory_Controller object at 0x7f0bb8f7e860>, <m5.objects.Directory_Controller.Directory_Controller object at 0x7f0bb8f7ea90>, <m5.objects.Directory_Controller.Directory_Controller object at 0x7f0bb8f7ecc0>, <m5.objects.Directory_Controller.Directory_Controller object at 0x7f0bb8f7eef0>, <m5.objects.Directory_Controller.Directory_Controller object at 0x7f0bb8f0a160>, <m5.objects.Directory_Controller.Directory_Controller object at 0x7f0bb8f0a390>, <m5.objects.Directory_Controller.Directory_Controller object at 0x7f0bb8f0a5c0>, <m5.objects.Directory_Controller.Directory_Controller object at 0x7f0bb8f0a7f0>, <m5.objects.Directory_Controller.Directory_Controller object at 0x7f0bb8f0aa20>, <m5.objects.Directory_Controller.Directory_Controller object at 0x7f0bb8f0ac50>]

dmas(2)=[<m5.objects.DMA_Controller.DMA_Controller object at 0x7f0bb8eef630>, <m5.objects.DMA_Controller.DMA_Controller object at 0x7f0bb8eefc50>]

others(0)=[]

ingesting topologies_and_routing/nr_lists/kite_med_noci_nndbt_picky.nrl w/ # rotuers = 84
warn: Memory mode will be changed to atomic_noncaching
warn: Physical memory size specified is 32GB which is greater than 3GB.  Twice the number of memory controllers would be created.
