FileNotFoundError: [Errno 2] No such file or directory: 'topologies_and_routing/nr_lists/butter_donut_x_noci_nndbt_picky.nrl'

At:
  /home/min/a/green456/netsmith_icpp24/auto_top_gem5/configs/topologies/FS_NoCI_EscapeVirtualNetworks.py(570): ingest_flat_map_list
  /home/min/a/green456/netsmith_icpp24/auto_top_gem5/configs/topologies/FS_NoCI_EscapeVirtualNetworks.py(108): makeTopology
  /home/min/a/green456/netsmith_icpp24/auto_top_gem5/configs/ruby/Ruby.py(224): create_system
  configs/netsmith/netsmith_parsec.py(218): build_test_system
  configs/netsmith/netsmith_parsec.py(518): <module>
  build/X86/python/m5/main.py(434): main
gem5 Simulator System.  https://www.gem5.org
gem5 is copyrighted software; use the --copyright option for details.

gem5 version 22.0.0.2
gem5 compiled Apr 28 2024 22:23:45
gem5 started Jun 14 2024 14:00:06
gem5 executing on mnemosyne.ecn.purdue.edu, pid 8306
command line: ./build/X86/gem5.fast -d ./parsec_results/noci_32GBxDDR4_2envs_38GHz_2MBl2_allthreads_64lwidth_sameflowpriority_lwbufadj/1000warmup_1000simul/ferret/butter_donut_x_noci_nndbt_picky_none/ configs/netsmith/netsmith_parsec.py -I 1000 --insts_after_warmup 1000 --benchmark_parsec ferret -r 1 --checkpoint-dir ./parsec_noci_checkpoints/roi_checkpoint/system_5/ferret --router_map_file ./topologies_and_routing/topo_maps/noci/butter_donut_x_noci.map --flat_vn_map_file topologies_and_routing/vn_maps/butter_donut_x_noci_nndbt_picky_none_2vns.vn --flat_nr_map_file topologies_and_routing/nr_lists/butter_donut_x_noci_nndbt_picky.nrl --topology FS_NoCI_EscapeVirtualNetworks --noi_routers 20 --noc_clk 3.8GHz --sys-clock 3.8GHz --cpu-clock 3.8GHz --ruby-clock 3.8GHz --noi_clk 2.7GHz --num-cpus 64 --mem_or_coh mem --num-dirs 32 --caches --num-l2caches 64 --l2_size 2MB --num_chiplets 4 --mem-size 32GB --ruby --network garnet --link-width-bits 64 --kernel /home/yara/mithuna2/green456/netsmith_autotop/auto_top_gem5/parsec_disk_image/vmlinux-5.4.49 --disk-image /home/yara/mithuna2/green456/netsmith_autotop/auto_top_gem5/parsec_disk_image/x86-parsec --cpu-type X86O3CPU --routing-algorithm 2 --use_escape_vns --vcs-per-vnet 10 --evn_n_deadlock_free 1 --evn_min_n_deadlock_free 2 --evn_deadlock_partition 8 --mem-type DDR4_2400_16x4

l1_caches(64)=[<m5.objects.L1Cache_Controller.L1Cache_Controller object at 0x7f2a4b7e7e48>, <m5.objects.L1Cache_Controller.L1Cache_Controller object at 0x7f2a4b7f0eb8>, <m5.objects.L1Cache_Controller.L1Cache_Controller object at 0x7f2a4b7f8eb8>, <m5.objects.L1Cache_Controller.L1Cache_Controller object at 0x7f2a4b801eb8>, <m5.objects.L1Cache_Controller.L1Cache_Controller object at 0x7f2a4b80aeb8>, <m5.objects.L1Cache_Controller.L1Cache_Controller object at 0x7f2a4b793eb8>, <m5.objects.L1Cache_Controller.L1Cache_Controller object at 0x7f2a4b79deb8>, <m5.objects.L1Cache_Controller.L1Cache_Controller object at 0x7f2a4b7a6eb8>, <m5.objects.L1Cache_Controller.L1Cache_Controller object at 0x7f2a4b7afeb8>, <m5.objects.L1Cache_Controller.L1Cache_Controller object at 0x7f2a4b7b7eb8>, <m5.objects.L1Cache_Controller.L1Cache_Controller object at 0x7f2a4b7c1eb8>, <m5.objects.L1Cache_Controller.L1Cache_Controller object at 0x7f2a4b7c9eb8>, <m5.objects.L1Cache_Controller.L1Cache_Controller object at 0x7f2a4b753eb8>, <m5.objects.L1Cache_Controller.L1Cache_Controller object at 0x7f2a4b75beb8>, <m5.objects.L1Cache_Controller.L1Cache_Controller object at 0x7f2a4b765eb8>, <m5.objects.L1Cache_Controller.L1Cache_Controller object at 0x7f2a4b76eeb8>, <m5.objects.L1Cache_Controller.L1Cache_Controller object at 0x7f2a4b777eb8>, <m5.objects.L1Cache_Controller.L1Cache_Controller object at 0x7f2a4b780eb8>, <m5.objects.L1Cache_Controller.L1Cache_Controller object at 0x7f2a4b789eb8>, <m5.objects.L1Cache_Controller.L1Cache_Controller object at 0x7f2a4b713eb8>, <m5.objects.L1Cache_Controller.L1Cache_Controller object at 0x7f2a4b71beb8>, <m5.objects.L1Cache_Controller.L1Cache_Controller object at 0x7f2a4b725eb8>, <m5.objects.L1Cache_Controller.L1Cache_Controller object at 0x7f2a4b72deb8>, <m5.objects.L1Cache_Controller.L1Cache_Controller object at 0x7f2a4b738eb8>, <m5.objects.L1Cache_Controller.L1Cache_Controller object at 0x7f2a4b740eb8>, <m5.objects.L1Cache_Controller.L1Cache_Controller object at 0x7f2a4b749eb8>, <m5.objects.L1Cache_Controller.L1Cache_Controller object at 0x7f2a4b6d2eb8>, <m5.objects.L1Cache_Controller.L1Cache_Controller object at 0x7f2a4b6daeb8>, <m5.objects.L1Cache_Controller.L1Cache_Controller object at 0x7f2a4b6e5eb8>, <m5.objects.L1Cache_Controller.L1Cache_Controller object at 0x7f2a4b6edeb8>, <m5.objects.L1Cache_Controller.L1Cache_Controller object at 0x7f2a4b6f8eb8>, <m5.objects.L1Cache_Controller.L1Cache_Controller object at 0x7f2a4b700eb8>, <m5.objects.L1Cache_Controller.L1Cache_Controller object at 0x7f2a4b70aeb8>, <m5.objects.L1Cache_Controller.L1Cache_Controller object at 0x7f2a4b692eb8>, <m5.objects.L1Cache_Controller.L1Cache_Controller object at 0x7f2a4b69beb8>, <m5.objects.L1Cache_Controller.L1Cache_Controller object at 0x7f2a4b6a4eb8>, <m5.objects.L1Cache_Controller.L1Cache_Controller object at 0x7f2a4b6aceb8>, <m5.objects.L1Cache_Controller.L1Cache_Controller object at 0x7f2a4b6b6eb8>, <m5.objects.L1Cache_Controller.L1Cache_Controller object at 0x7f2a4b6beeb8>, <m5.objects.L1Cache_Controller.L1Cache_Controller object at 0x7f2a4b6c8eb8>, <m5.objects.L1Cache_Controller.L1Cache_Controller object at 0x7f2a4b6d0eb8>, <m5.objects.L1Cache_Controller.L1Cache_Controller object at 0x7f2a4b65aeb8>, <m5.objects.L1Cache_Controller.L1Cache_Controller object at 0x7f2a4b664eb8>, <m5.objects.L1Cache_Controller.L1Cache_Controller object at 0x7f2a4b66deb8>, <m5.objects.L1Cache_Controller.L1Cache_Controller object at 0x7f2a4b676eb8>, <m5.objects.L1Cache_Controller.L1Cache_Controller object at 0x7f2a4b67feb8>, <m5.objects.L1Cache_Controller.L1Cache_Controller object at 0x7f2a4b689eb8>, <m5.objects.L1Cache_Controller.L1Cache_Controller object at 0x7f2a4b691eb8>, <m5.objects.L1Cache_Controller.L1Cache_Controller object at 0x7f2a4b61ceb8>, <m5.objects.L1Cache_Controller.L1Cache_Controller object at 0x7f2a4b624eb8>, <m5.objects.L1Cache_Controller.L1Cache_Controller object at 0x7f2a4b62eeb8>, <m5.objects.L1Cache_Controller.L1Cache_Controller object at 0x7f2a4b636eb8>, <m5.objects.L1Cache_Controller.L1Cache_Controller object at 0x7f2a4b63feb8>, <m5.objects.L1Cache_Controller.L1Cache_Controller object at 0x7f2a4b648eb8>, <m5.objects.L1Cache_Controller.L1Cache_Controller object at 0x7f2a4b5d2eb8>, <m5.objects.L1Cache_Controller.L1Cache_Controller object at 0x7f2a4b5dbeb8>, <m5.objects.L1Cache_Controller.L1Cache_Controller object at 0x7f2a4b5e5eb8>, <m5.objects.L1Cache_Controller.L1Cache_Controller object at 0x7f2a4b5eeeb8>, <m5.objects.L1Cache_Controller.L1Cache_Controller object at 0x7f2a4b5f6eb8>, <m5.objects.L1Cache_Controller.L1Cache_Controller object at 0x7f2a4b5ffeb8>, <m5.objects.L1Cache_Controller.L1Cache_Controller object at 0x7f2a4b607eb8>, <m5.objects.L1Cache_Controller.L1Cache_Controller object at 0x7f2a4b610eb8>, <m5.objects.L1Cache_Controller.L1Cache_Controller object at 0x7f2a4b599eb8>, <m5.objects.L1Cache_Controller.L1Cache_Controller object at 0x7f2a4b5a2eb8>]

l2_caches(64)=[<m5.objects.L2Cache_Controller.L2Cache_Controller object at 0x7f2a4b5abba8>, <m5.objects.L2Cache_Controller.L2Cache_Controller object at 0x7f2a4b5b3630>, <m5.objects.L2Cache_Controller.L2Cache_Controller object at 0x7f2a4b5bd0b8>, <m5.objects.L2Cache_Controller.L2Cache_Controller object at 0x7f2a4b5bdb00>, <m5.objects.L2Cache_Controller.L2Cache_Controller object at 0x7f2a4b5c5588>, <m5.objects.L2Cache_Controller.L2Cache_Controller object at 0x7f2a4b5c5fd0>, <m5.objects.L2Cache_Controller.L2Cache_Controller object at 0x7f2a4b5cfa58>, <m5.objects.L2Cache_Controller.L2Cache_Controller object at 0x7f2a4b5584e0>, <m5.objects.L2Cache_Controller.L2Cache_Controller object at 0x7f2a4b558f28>, <m5.objects.L2Cache_Controller.L2Cache_Controller object at 0x7f2a4b5619b0>, <m5.objects.L2Cache_Controller.L2Cache_Controller object at 0x7f2a4b569438>, <m5.objects.L2Cache_Controller.L2Cache_Controller object at 0x7f2a4b569e80>, <m5.objects.L2Cache_Controller.L2Cache_Controller object at 0x7f2a4b571908>, <m5.objects.L2Cache_Controller.L2Cache_Controller object at 0x7f2a4b57b390>, <m5.objects.L2Cache_Controller.L2Cache_Controller object at 0x7f2a4b57bdd8>, <m5.objects.L2Cache_Controller.L2Cache_Controller object at 0x7f2a4b584860>, <m5.objects.L2Cache_Controller.L2Cache_Controller object at 0x7f2a4b58c2e8>, <m5.objects.L2Cache_Controller.L2Cache_Controller object at 0x7f2a4b58cd30>, <m5.objects.L2Cache_Controller.L2Cache_Controller object at 0x7f2a4b5167b8>, <m5.objects.L2Cache_Controller.L2Cache_Controller object at 0x7f2a4b51f240>, <m5.objects.L2Cache_Controller.L2Cache_Controller object at 0x7f2a4b51fc88>, <m5.objects.L2Cache_Controller.L2Cache_Controller object at 0x7f2a4b528710>, <m5.objects.L2Cache_Controller.L2Cache_Controller object at 0x7f2a4b532198>, <m5.objects.L2Cache_Controller.L2Cache_Controller object at 0x7f2a4b532be0>, <m5.objects.L2Cache_Controller.L2Cache_Controller object at 0x7f2a4b53a668>, <m5.objects.L2Cache_Controller.L2Cache_Controller object at 0x7f2a4b5440f0>, <m5.objects.L2Cache_Controller.L2Cache_Controller object at 0x7f2a4b544b38>, <m5.objects.L2Cache_Controller.L2Cache_Controller object at 0x7f2a4b54c5c0>, <m5.objects.L2Cache_Controller.L2Cache_Controller object at 0x7f2a4b4d5048>, <m5.objects.L2Cache_Controller.L2Cache_Controller object at 0x7f2a4b4d5a90>, <m5.objects.L2Cache_Controller.L2Cache_Controller object at 0x7f2a4b4df518>, <m5.objects.L2Cache_Controller.L2Cache_Controller object at 0x7f2a4b4dff60>, <m5.objects.L2Cache_Controller.L2Cache_Controller object at 0x7f2a4b4e79e8>, <m5.objects.L2Cache_Controller.L2Cache_Controller object at 0x7f2a4b4f1470>, <m5.objects.L2Cache_Controller.L2Cache_Controller object at 0x7f2a4b4f1eb8>, <m5.objects.L2Cache_Controller.L2Cache_Controller object at 0x7f2a4b4fa940>, <m5.objects.L2Cache_Controller.L2Cache_Controller object at 0x7f2a4b5013c8>, <m5.objects.L2Cache_Controller.L2Cache_Controller object at 0x7f2a4b501e10>, <m5.objects.L2Cache_Controller.L2Cache_Controller object at 0x7f2a4b50b898>, <m5.objects.L2Cache_Controller.L2Cache_Controller object at 0x7f2a4b495320>, <m5.objects.L2Cache_Controller.L2Cache_Controller object at 0x7f2a4b495d68>, <m5.objects.L2Cache_Controller.L2Cache_Controller object at 0x7f2a4b49d7f0>, <m5.objects.L2Cache_Controller.L2Cache_Controller object at 0x7f2a4b4a8278>, <m5.objects.L2Cache_Controller.L2Cache_Controller object at 0x7f2a4b4a8cc0>, <m5.objects.L2Cache_Controller.L2Cache_Controller object at 0x7f2a4b4af748>, <m5.objects.L2Cache_Controller.L2Cache_Controller object at 0x7f2a4b4b91d0>, <m5.objects.L2Cache_Controller.L2Cache_Controller object at 0x7f2a4b4b9c18>, <m5.objects.L2Cache_Controller.L2Cache_Controller object at 0x7f2a4b4c16a0>, <m5.objects.L2Cache_Controller.L2Cache_Controller object at 0x7f2a4b4ca128>, <m5.objects.L2Cache_Controller.L2Cache_Controller object at 0x7f2a4b4cab70>, <m5.objects.L2Cache_Controller.L2Cache_Controller object at 0x7f2a4b4545f8>, <m5.objects.L2Cache_Controller.L2Cache_Controller object at 0x7f2a4b45b080>, <m5.objects.L2Cache_Controller.L2Cache_Controller object at 0x7f2a4b45bac8>, <m5.objects.L2Cache_Controller.L2Cache_Controller object at 0x7f2a4b463550>, <m5.objects.L2Cache_Controller.L2Cache_Controller object at 0x7f2a4b463f98>, <m5.objects.L2Cache_Controller.L2Cache_Controller object at 0x7f2a4b46ea20>, <m5.objects.L2Cache_Controller.L2Cache_Controller object at 0x7f2a4b4764a8>, <m5.objects.L2Cache_Controller.L2Cache_Controller object at 0x7f2a4b476ef0>, <m5.objects.L2Cache_Controller.L2Cache_Controller object at 0x7f2a4b480978>, <m5.objects.L2Cache_Controller.L2Cache_Controller object at 0x7f2a4b48a400>, <m5.objects.L2Cache_Controller.L2Cache_Controller object at 0x7f2a4b48ae48>, <m5.objects.L2Cache_Controller.L2Cache_Controller object at 0x7f2a4b4128d0>, <m5.objects.L2Cache_Controller.L2Cache_Controller object at 0x7f2a4b41b358>, <m5.objects.L2Cache_Controller.L2Cache_Controller object at 0x7f2a4b41bda0>]

dirs(32)=[<m5.objects.Directory_Controller.Directory_Controller object at 0x7f2a4b423710>, <m5.objects.Directory_Controller.Directory_Controller object at 0x7f2a4b423940>, <m5.objects.Directory_Controller.Directory_Controller object at 0x7f2a4b423b70>, <m5.objects.Directory_Controller.Directory_Controller object at 0x7f2a4b423da0>, <m5.objects.Directory_Controller.Directory_Controller object at 0x7f2a4b423fd0>, <m5.objects.Directory_Controller.Directory_Controller object at 0x7f2a4b42f240>, <m5.objects.Directory_Controller.Directory_Controller object at 0x7f2a4b42f470>, <m5.objects.Directory_Controller.Directory_Controller object at 0x7f2a4b42f6a0>, <m5.objects.Directory_Controller.Directory_Controller object at 0x7f2a4b42f8d0>, <m5.objects.Directory_Controller.Directory_Controller object at 0x7f2a4b42fb00>, <m5.objects.Directory_Controller.Directory_Controller object at 0x7f2a4b42fd30>, <m5.objects.Directory_Controller.Directory_Controller object at 0x7f2a4b42ff60>, <m5.objects.Directory_Controller.Directory_Controller object at 0x7f2a4b43a1d0>, <m5.objects.Directory_Controller.Directory_Controller object at 0x7f2a4b43a400>, <m5.objects.Directory_Controller.Directory_Controller object at 0x7f2a4b43a630>, <m5.objects.Directory_Controller.Directory_Controller object at 0x7f2a4b43a860>, <m5.objects.Directory_Controller.Directory_Controller object at 0x7f2a4b43aa90>, <m5.objects.Directory_Controller.Directory_Controller object at 0x7f2a4b43acc0>, <m5.objects.Directory_Controller.Directory_Controller object at 0x7f2a4b43aef0>, <m5.objects.Directory_Controller.Directory_Controller object at 0x7f2a4b442160>, <m5.objects.Directory_Controller.Directory_Controller object at 0x7f2a4b442390>, <m5.objects.Directory_Controller.Directory_Controller object at 0x7f2a4b4425c0>, <m5.objects.Directory_Controller.Directory_Controller object at 0x7f2a4b4427f0>, <m5.objects.Directory_Controller.Directory_Controller object at 0x7f2a4b442a20>, <m5.objects.Directory_Controller.Directory_Controller object at 0x7f2a4b442c50>, <m5.objects.Directory_Controller.Directory_Controller object at 0x7f2a4b442e80>, <m5.objects.Directory_Controller.Directory_Controller object at 0x7f2a4b4510f0>, <m5.objects.Directory_Controller.Directory_Controller object at 0x7f2a4b451320>, <m5.objects.Directory_Controller.Directory_Controller object at 0x7f2a4b451550>, <m5.objects.Directory_Controller.Directory_Controller object at 0x7f2a4b451780>, <m5.objects.Directory_Controller.Directory_Controller object at 0x7f2a4b4519b0>, <m5.objects.Directory_Controller.Directory_Controller object at 0x7f2a4b451be0>]

dmas(2)=[<m5.objects.DMA_Controller.DMA_Controller object at 0x7f2a4b3b55c0>, <m5.objects.DMA_Controller.DMA_Controller object at 0x7f2a4b3b5be0>]

others(0)=[]

ingesting topologies_and_routing/nr_lists/butter_donut_x_noci_nndbt_picky.nrl w/ # rotuers = 84
warn: Memory mode will be changed to atomic_noncaching
warn: Physical memory size specified is 32GB which is greater than 3GB.  Twice the number of memory controllers would be created.
