FileNotFoundError: [Errno 2] No such file or directory: 'topologies_and_routing/nr_lists/dbl_bfly_x_noci_nndbt_picky.nrl'

At:
  /home/min/a/green456/netsmith_icpp24/auto_top_gem5/configs/topologies/FS_NoCI_EscapeVirtualNetworks.py(570): ingest_flat_map_list
  /home/min/a/green456/netsmith_icpp24/auto_top_gem5/configs/topologies/FS_NoCI_EscapeVirtualNetworks.py(108): makeTopology
  /home/min/a/green456/netsmith_icpp24/auto_top_gem5/configs/ruby/Ruby.py(224): create_system
  configs/netsmith/netsmith_parsec.py(218): build_test_system
  configs/netsmith/netsmith_parsec.py(518): <module>
  build/X86/python/m5/main.py(434): main
gem5 Simulator System.  https://www.gem5.org
gem5 is copyrighted software; use the --copyright option for details.

gem5 version 22.0.0.2
gem5 compiled Apr 28 2024 22:23:45
gem5 started Jun 14 2024 14:00:08
gem5 executing on mnemosyne.ecn.purdue.edu, pid 8313
command line: ./build/X86/gem5.fast -d ./parsec_results/noci_32GBxDDR4_2envs_38GHz_2MBl2_allthreads_64lwidth_sameflowpriority_lwbufadj/1000warmup_1000simul/ferret/dbl_bfly_x_noci_nndbt_picky_none/ configs/netsmith/netsmith_parsec.py -I 1000 --insts_after_warmup 1000 --benchmark_parsec ferret -r 1 --checkpoint-dir ./parsec_noci_checkpoints/roi_checkpoint/system_5/ferret --router_map_file ./topologies_and_routing/topo_maps/noci/dbl_bfly_x_noci.map --flat_vn_map_file topologies_and_routing/vn_maps/dbl_bfly_x_noci_nndbt_picky_none_2vns.vn --flat_nr_map_file topologies_and_routing/nr_lists/dbl_bfly_x_noci_nndbt_picky.nrl --topology FS_NoCI_EscapeVirtualNetworks --noi_routers 20 --noc_clk 3.8GHz --sys-clock 3.8GHz --cpu-clock 3.8GHz --ruby-clock 3.8GHz --noi_clk 2.7GHz --num-cpus 64 --mem_or_coh mem --num-dirs 32 --caches --num-l2caches 64 --l2_size 2MB --num_chiplets 4 --mem-size 32GB --ruby --network garnet --link-width-bits 64 --kernel /home/yara/mithuna2/green456/netsmith_autotop/auto_top_gem5/parsec_disk_image/vmlinux-5.4.49 --disk-image /home/yara/mithuna2/green456/netsmith_autotop/auto_top_gem5/parsec_disk_image/x86-parsec --cpu-type X86O3CPU --routing-algorithm 2 --use_escape_vns --vcs-per-vnet 10 --evn_n_deadlock_free 1 --evn_min_n_deadlock_free 2 --evn_deadlock_partition 8 --mem-type DDR4_2400_16x4

l1_caches(64)=[<m5.objects.L1Cache_Controller.L1Cache_Controller object at 0x7f9f3ab00eb8>, <m5.objects.L1Cache_Controller.L1Cache_Controller object at 0x7f9f3ab04f28>, <m5.objects.L1Cache_Controller.L1Cache_Controller object at 0x7f9f3ab10f28>, <m5.objects.L1Cache_Controller.L1Cache_Controller object at 0x7f9f3ab1af28>, <m5.objects.L1Cache_Controller.L1Cache_Controller object at 0x7f9f3ab22f28>, <m5.objects.L1Cache_Controller.L1Cache_Controller object at 0x7f9f3aaabf28>, <m5.objects.L1Cache_Controller.L1Cache_Controller object at 0x7f9f3aab5f28>, <m5.objects.L1Cache_Controller.L1Cache_Controller object at 0x7f9f3aabef28>, <m5.objects.L1Cache_Controller.L1Cache_Controller object at 0x7f9f3aac7f28>, <m5.objects.L1Cache_Controller.L1Cache_Controller object at 0x7f9f3aacff28>, <m5.objects.L1Cache_Controller.L1Cache_Controller object at 0x7f9f3aad9f28>, <m5.objects.L1Cache_Controller.L1Cache_Controller object at 0x7f9f3aae1f28>, <m5.objects.L1Cache_Controller.L1Cache_Controller object at 0x7f9f3aa6bf28>, <m5.objects.L1Cache_Controller.L1Cache_Controller object at 0x7f9f3aa73f28>, <m5.objects.L1Cache_Controller.L1Cache_Controller object at 0x7f9f3aa7df28>, <m5.objects.L1Cache_Controller.L1Cache_Controller object at 0x7f9f3aa86f28>, <m5.objects.L1Cache_Controller.L1Cache_Controller object at 0x7f9f3aa8ff28>, <m5.objects.L1Cache_Controller.L1Cache_Controller object at 0x7f9f3aa98f28>, <m5.objects.L1Cache_Controller.L1Cache_Controller object at 0x7f9f3aaa1f28>, <m5.objects.L1Cache_Controller.L1Cache_Controller object at 0x7f9f3aa2bf28>, <m5.objects.L1Cache_Controller.L1Cache_Controller object at 0x7f9f3aa33f28>, <m5.objects.L1Cache_Controller.L1Cache_Controller object at 0x7f9f3aa3df28>, <m5.objects.L1Cache_Controller.L1Cache_Controller object at 0x7f9f3aa45f28>, <m5.objects.L1Cache_Controller.L1Cache_Controller object at 0x7f9f3aa4ff28>, <m5.objects.L1Cache_Controller.L1Cache_Controller object at 0x7f9f3aa58f28>, <m5.objects.L1Cache_Controller.L1Cache_Controller object at 0x7f9f3aa62f28>, <m5.objects.L1Cache_Controller.L1Cache_Controller object at 0x7f9f3a9eaf28>, <m5.objects.L1Cache_Controller.L1Cache_Controller object at 0x7f9f3a9f2f28>, <m5.objects.L1Cache_Controller.L1Cache_Controller object at 0x7f9f3a9fcf28>, <m5.objects.L1Cache_Controller.L1Cache_Controller object at 0x7f9f3aa05f28>, <m5.objects.L1Cache_Controller.L1Cache_Controller object at 0x7f9f3aa10f28>, <m5.objects.L1Cache_Controller.L1Cache_Controller object at 0x7f9f3aa18f28>, <m5.objects.L1Cache_Controller.L1Cache_Controller object at 0x7f9f3aa22f28>, <m5.objects.L1Cache_Controller.L1Cache_Controller object at 0x7f9f3a9aaf28>, <m5.objects.L1Cache_Controller.L1Cache_Controller object at 0x7f9f3a9b3f28>, <m5.objects.L1Cache_Controller.L1Cache_Controller object at 0x7f9f3a9bcf28>, <m5.objects.L1Cache_Controller.L1Cache_Controller object at 0x7f9f3a9c5f28>, <m5.objects.L1Cache_Controller.L1Cache_Controller object at 0x7f9f3a9cef28>, <m5.objects.L1Cache_Controller.L1Cache_Controller object at 0x7f9f3a9d6f28>, <m5.objects.L1Cache_Controller.L1Cache_Controller object at 0x7f9f3a9e0f28>, <m5.objects.L1Cache_Controller.L1Cache_Controller object at 0x7f9f3a9e8f28>, <m5.objects.L1Cache_Controller.L1Cache_Controller object at 0x7f9f3a972f28>, <m5.objects.L1Cache_Controller.L1Cache_Controller object at 0x7f9f3a97bf28>, <m5.objects.L1Cache_Controller.L1Cache_Controller object at 0x7f9f3a985f28>, <m5.objects.L1Cache_Controller.L1Cache_Controller object at 0x7f9f3a98ef28>, <m5.objects.L1Cache_Controller.L1Cache_Controller object at 0x7f9f3a997f28>, <m5.objects.L1Cache_Controller.L1Cache_Controller object at 0x7f9f3a9a0f28>, <m5.objects.L1Cache_Controller.L1Cache_Controller object at 0x7f9f3a9a9f28>, <m5.objects.L1Cache_Controller.L1Cache_Controller object at 0x7f9f3a933f28>, <m5.objects.L1Cache_Controller.L1Cache_Controller object at 0x7f9f3a93bf28>, <m5.objects.L1Cache_Controller.L1Cache_Controller object at 0x7f9f3a945f28>, <m5.objects.L1Cache_Controller.L1Cache_Controller object at 0x7f9f3a94df28>, <m5.objects.L1Cache_Controller.L1Cache_Controller object at 0x7f9f3a957f28>, <m5.objects.L1Cache_Controller.L1Cache_Controller object at 0x7f9f3a960f28>, <m5.objects.L1Cache_Controller.L1Cache_Controller object at 0x7f9f3a8eaf28>, <m5.objects.L1Cache_Controller.L1Cache_Controller object at 0x7f9f3a8f3f28>, <m5.objects.L1Cache_Controller.L1Cache_Controller object at 0x7f9f3a8fcf28>, <m5.objects.L1Cache_Controller.L1Cache_Controller object at 0x7f9f3a906f28>, <m5.objects.L1Cache_Controller.L1Cache_Controller object at 0x7f9f3a90ff28>, <m5.objects.L1Cache_Controller.L1Cache_Controller object at 0x7f9f3a917f28>, <m5.objects.L1Cache_Controller.L1Cache_Controller object at 0x7f9f3a91ff28>, <m5.objects.L1Cache_Controller.L1Cache_Controller object at 0x7f9f3a928f28>, <m5.objects.L1Cache_Controller.L1Cache_Controller object at 0x7f9f3a8b1f28>, <m5.objects.L1Cache_Controller.L1Cache_Controller object at 0x7f9f3a8baf28>]

l2_caches(64)=[<m5.objects.L2Cache_Controller.L2Cache_Controller object at 0x7f9f3a8c3c18>, <m5.objects.L2Cache_Controller.L2Cache_Controller object at 0x7f9f3a8cc6a0>, <m5.objects.L2Cache_Controller.L2Cache_Controller object at 0x7f9f3a8d6128>, <m5.objects.L2Cache_Controller.L2Cache_Controller object at 0x7f9f3a8d6b70>, <m5.objects.L2Cache_Controller.L2Cache_Controller object at 0x7f9f3a8de5f8>, <m5.objects.L2Cache_Controller.L2Cache_Controller object at 0x7f9f3a8e8080>, <m5.objects.L2Cache_Controller.L2Cache_Controller object at 0x7f9f3a8e8ac8>, <m5.objects.L2Cache_Controller.L2Cache_Controller object at 0x7f9f3a870550>, <m5.objects.L2Cache_Controller.L2Cache_Controller object at 0x7f9f3a870f98>, <m5.objects.L2Cache_Controller.L2Cache_Controller object at 0x7f9f3a879a20>, <m5.objects.L2Cache_Controller.L2Cache_Controller object at 0x7f9f3a8824a8>, <m5.objects.L2Cache_Controller.L2Cache_Controller object at 0x7f9f3a882ef0>, <m5.objects.L2Cache_Controller.L2Cache_Controller object at 0x7f9f3a88a978>, <m5.objects.L2Cache_Controller.L2Cache_Controller object at 0x7f9f3a894400>, <m5.objects.L2Cache_Controller.L2Cache_Controller object at 0x7f9f3a894e48>, <m5.objects.L2Cache_Controller.L2Cache_Controller object at 0x7f9f3a89d8d0>, <m5.objects.L2Cache_Controller.L2Cache_Controller object at 0x7f9f3a8a6358>, <m5.objects.L2Cache_Controller.L2Cache_Controller object at 0x7f9f3a8a6da0>, <m5.objects.L2Cache_Controller.L2Cache_Controller object at 0x7f9f3a82f828>, <m5.objects.L2Cache_Controller.L2Cache_Controller object at 0x7f9f3a8382b0>, <m5.objects.L2Cache_Controller.L2Cache_Controller object at 0x7f9f3a838cf8>, <m5.objects.L2Cache_Controller.L2Cache_Controller object at 0x7f9f3a841780>, <m5.objects.L2Cache_Controller.L2Cache_Controller object at 0x7f9f3a84b208>, <m5.objects.L2Cache_Controller.L2Cache_Controller object at 0x7f9f3a84bc50>, <m5.objects.L2Cache_Controller.L2Cache_Controller object at 0x7f9f3a8536d8>, <m5.objects.L2Cache_Controller.L2Cache_Controller object at 0x7f9f3a85d160>, <m5.objects.L2Cache_Controller.L2Cache_Controller object at 0x7f9f3a85dba8>, <m5.objects.L2Cache_Controller.L2Cache_Controller object at 0x7f9f3a865630>, <m5.objects.L2Cache_Controller.L2Cache_Controller object at 0x7f9f3a7ef0b8>, <m5.objects.L2Cache_Controller.L2Cache_Controller object at 0x7f9f3a7efb00>, <m5.objects.L2Cache_Controller.L2Cache_Controller object at 0x7f9f3a7f8588>, <m5.objects.L2Cache_Controller.L2Cache_Controller object at 0x7f9f3a7f8fd0>, <m5.objects.L2Cache_Controller.L2Cache_Controller object at 0x7f9f3a800a58>, <m5.objects.L2Cache_Controller.L2Cache_Controller object at 0x7f9f3a80a4e0>, <m5.objects.L2Cache_Controller.L2Cache_Controller object at 0x7f9f3a80af28>, <m5.objects.L2Cache_Controller.L2Cache_Controller object at 0x7f9f3a8139b0>, <m5.objects.L2Cache_Controller.L2Cache_Controller object at 0x7f9f3a819438>, <m5.objects.L2Cache_Controller.L2Cache_Controller object at 0x7f9f3a819e80>, <m5.objects.L2Cache_Controller.L2Cache_Controller object at 0x7f9f3a824908>, <m5.objects.L2Cache_Controller.L2Cache_Controller object at 0x7f9f3a7ac390>, <m5.objects.L2Cache_Controller.L2Cache_Controller object at 0x7f9f3a7acdd8>, <m5.objects.L2Cache_Controller.L2Cache_Controller object at 0x7f9f3a7b6860>, <m5.objects.L2Cache_Controller.L2Cache_Controller object at 0x7f9f3a7c02e8>, <m5.objects.L2Cache_Controller.L2Cache_Controller object at 0x7f9f3a7c0d30>, <m5.objects.L2Cache_Controller.L2Cache_Controller object at 0x7f9f3a7c77b8>, <m5.objects.L2Cache_Controller.L2Cache_Controller object at 0x7f9f3a7d1240>, <m5.objects.L2Cache_Controller.L2Cache_Controller object at 0x7f9f3a7d1c88>, <m5.objects.L2Cache_Controller.L2Cache_Controller object at 0x7f9f3a7da710>, <m5.objects.L2Cache_Controller.L2Cache_Controller object at 0x7f9f3a7e2198>, <m5.objects.L2Cache_Controller.L2Cache_Controller object at 0x7f9f3a7e2be0>, <m5.objects.L2Cache_Controller.L2Cache_Controller object at 0x7f9f3a76c668>, <m5.objects.L2Cache_Controller.L2Cache_Controller object at 0x7f9f3a7740f0>, <m5.objects.L2Cache_Controller.L2Cache_Controller object at 0x7f9f3a774b38>, <m5.objects.L2Cache_Controller.L2Cache_Controller object at 0x7f9f3a77d5c0>, <m5.objects.L2Cache_Controller.L2Cache_Controller object at 0x7f9f3a787048>, <m5.objects.L2Cache_Controller.L2Cache_Controller object at 0x7f9f3a787a90>, <m5.objects.L2Cache_Controller.L2Cache_Controller object at 0x7f9f3a78f518>, <m5.objects.L2Cache_Controller.L2Cache_Controller object at 0x7f9f3a78ff60>, <m5.objects.L2Cache_Controller.L2Cache_Controller object at 0x7f9f3a7999e8>, <m5.objects.L2Cache_Controller.L2Cache_Controller object at 0x7f9f3a7a2470>, <m5.objects.L2Cache_Controller.L2Cache_Controller object at 0x7f9f3a7a2eb8>, <m5.objects.L2Cache_Controller.L2Cache_Controller object at 0x7f9f3a72b940>, <m5.objects.L2Cache_Controller.L2Cache_Controller object at 0x7f9f3a7343c8>, <m5.objects.L2Cache_Controller.L2Cache_Controller object at 0x7f9f3a734e10>]

dirs(32)=[<m5.objects.Directory_Controller.Directory_Controller object at 0x7f9f3a73c780>, <m5.objects.Directory_Controller.Directory_Controller object at 0x7f9f3a73c9b0>, <m5.objects.Directory_Controller.Directory_Controller object at 0x7f9f3a73cbe0>, <m5.objects.Directory_Controller.Directory_Controller object at 0x7f9f3a73ce10>, <m5.objects.Directory_Controller.Directory_Controller object at 0x7f9f3a748080>, <m5.objects.Directory_Controller.Directory_Controller object at 0x7f9f3a7482b0>, <m5.objects.Directory_Controller.Directory_Controller object at 0x7f9f3a7484e0>, <m5.objects.Directory_Controller.Directory_Controller object at 0x7f9f3a748710>, <m5.objects.Directory_Controller.Directory_Controller object at 0x7f9f3a748940>, <m5.objects.Directory_Controller.Directory_Controller object at 0x7f9f3a748b70>, <m5.objects.Directory_Controller.Directory_Controller object at 0x7f9f3a748da0>, <m5.objects.Directory_Controller.Directory_Controller object at 0x7f9f3a748fd0>, <m5.objects.Directory_Controller.Directory_Controller object at 0x7f9f3a752240>, <m5.objects.Directory_Controller.Directory_Controller object at 0x7f9f3a752470>, <m5.objects.Directory_Controller.Directory_Controller object at 0x7f9f3a7526a0>, <m5.objects.Directory_Controller.Directory_Controller object at 0x7f9f3a7528d0>, <m5.objects.Directory_Controller.Directory_Controller object at 0x7f9f3a752b00>, <m5.objects.Directory_Controller.Directory_Controller object at 0x7f9f3a752d30>, <m5.objects.Directory_Controller.Directory_Controller object at 0x7f9f3a752f60>, <m5.objects.Directory_Controller.Directory_Controller object at 0x7f9f3a75e1d0>, <m5.objects.Directory_Controller.Directory_Controller object at 0x7f9f3a75e400>, <m5.objects.Directory_Controller.Directory_Controller object at 0x7f9f3a75e630>, <m5.objects.Directory_Controller.Directory_Controller object at 0x7f9f3a75e860>, <m5.objects.Directory_Controller.Directory_Controller object at 0x7f9f3a75ea90>, <m5.objects.Directory_Controller.Directory_Controller object at 0x7f9f3a75ecc0>, <m5.objects.Directory_Controller.Directory_Controller object at 0x7f9f3a75eef0>, <m5.objects.Directory_Controller.Directory_Controller object at 0x7f9f3a6ea160>, <m5.objects.Directory_Controller.Directory_Controller object at 0x7f9f3a6ea390>, <m5.objects.Directory_Controller.Directory_Controller object at 0x7f9f3a6ea5c0>, <m5.objects.Directory_Controller.Directory_Controller object at 0x7f9f3a6ea7f0>, <m5.objects.Directory_Controller.Directory_Controller object at 0x7f9f3a6eaa20>, <m5.objects.Directory_Controller.Directory_Controller object at 0x7f9f3a6eac50>]

dmas(2)=[<m5.objects.DMA_Controller.DMA_Controller object at 0x7f9f3a6ce630>, <m5.objects.DMA_Controller.DMA_Controller object at 0x7f9f3a6cec50>]

others(0)=[]

ingesting topologies_and_routing/nr_lists/dbl_bfly_x_noci_nndbt_picky.nrl w/ # rotuers = 84
warn: Memory mode will be changed to atomic_noncaching
warn: Physical memory size specified is 32GB which is greater than 3GB.  Twice the number of memory controllers would be created.
