FileNotFoundError: [Errno 2] No such file or directory: 'topologies_and_routing/nr_lists/dbl_bfly_x_noci_nndbt_picky.nrl'

At:
  /home/min/a/green456/netsmith_icpp24/auto_top_gem5/configs/topologies/FS_NoCI_EscapeVirtualNetworks.py(570): ingest_flat_map_list
  /home/min/a/green456/netsmith_icpp24/auto_top_gem5/configs/topologies/FS_NoCI_EscapeVirtualNetworks.py(108): makeTopology
  /home/min/a/green456/netsmith_icpp24/auto_top_gem5/configs/ruby/Ruby.py(224): create_system
  configs/netsmith/netsmith_parsec.py(218): build_test_system
  configs/netsmith/netsmith_parsec.py(518): <module>
  build/X86/python/m5/main.py(434): main
gem5 Simulator System.  https://www.gem5.org
gem5 is copyrighted software; use the --copyright option for details.

gem5 version 22.0.0.2
gem5 compiled Apr 28 2024 22:23:45
gem5 started Jun 14 2024 14:15:28
gem5 executing on mnemosyne.ecn.purdue.edu, pid 11782
command line: ./build/X86/gem5.fast -d ./parsec_results/noci_32GBxDDR4_2envs_38GHz_2MBl2_allthreads_64lwidth_sameflowpriority_lwbufadj/1000warmup_1000simul/fluidanimate/dbl_bfly_x_noci_nndbt_picky_none/ configs/netsmith/netsmith_parsec.py -I 1000 --insts_after_warmup 1000 --benchmark_parsec fluidanimate -r 1 --checkpoint-dir ./parsec_noci_checkpoints/roi_checkpoint/system_5/fluidanimate --router_map_file ./topologies_and_routing/topo_maps/noci/dbl_bfly_x_noci.map --flat_vn_map_file topologies_and_routing/vn_maps/dbl_bfly_x_noci_nndbt_picky_none_2vns.vn --flat_nr_map_file topologies_and_routing/nr_lists/dbl_bfly_x_noci_nndbt_picky.nrl --topology FS_NoCI_EscapeVirtualNetworks --noi_routers 20 --noc_clk 3.8GHz --sys-clock 3.8GHz --cpu-clock 3.8GHz --ruby-clock 3.8GHz --noi_clk 2.7GHz --num-cpus 64 --mem_or_coh mem --num-dirs 32 --caches --num-l2caches 64 --l2_size 2MB --num_chiplets 4 --mem-size 32GB --ruby --network garnet --link-width-bits 64 --kernel /home/yara/mithuna2/green456/netsmith_autotop/auto_top_gem5/parsec_disk_image/vmlinux-5.4.49 --disk-image /home/yara/mithuna2/green456/netsmith_autotop/auto_top_gem5/parsec_disk_image/x86-parsec --cpu-type X86O3CPU --routing-algorithm 2 --use_escape_vns --vcs-per-vnet 10 --evn_n_deadlock_free 1 --evn_min_n_deadlock_free 2 --evn_deadlock_partition 8 --mem-type DDR4_2400_16x4

l1_caches(64)=[<m5.objects.L1Cache_Controller.L1Cache_Controller object at 0x7fb6b670fe80>, <m5.objects.L1Cache_Controller.L1Cache_Controller object at 0x7fb6b6713ef0>, <m5.objects.L1Cache_Controller.L1Cache_Controller object at 0x7fb6b6720ef0>, <m5.objects.L1Cache_Controller.L1Cache_Controller object at 0x7fb6b6729ef0>, <m5.objects.L1Cache_Controller.L1Cache_Controller object at 0x7fb6b6732ef0>, <m5.objects.L1Cache_Controller.L1Cache_Controller object at 0x7fb6b66bbef0>, <m5.objects.L1Cache_Controller.L1Cache_Controller object at 0x7fb6b66c4ef0>, <m5.objects.L1Cache_Controller.L1Cache_Controller object at 0x7fb6b66ceef0>, <m5.objects.L1Cache_Controller.L1Cache_Controller object at 0x7fb6b66d7ef0>, <m5.objects.L1Cache_Controller.L1Cache_Controller object at 0x7fb6b66dfef0>, <m5.objects.L1Cache_Controller.L1Cache_Controller object at 0x7fb6b66e9ef0>, <m5.objects.L1Cache_Controller.L1Cache_Controller object at 0x7fb6b66f1ef0>, <m5.objects.L1Cache_Controller.L1Cache_Controller object at 0x7fb6b667bef0>, <m5.objects.L1Cache_Controller.L1Cache_Controller object at 0x7fb6b6683ef0>, <m5.objects.L1Cache_Controller.L1Cache_Controller object at 0x7fb6b668cef0>, <m5.objects.L1Cache_Controller.L1Cache_Controller object at 0x7fb6b6696ef0>, <m5.objects.L1Cache_Controller.L1Cache_Controller object at 0x7fb6b669fef0>, <m5.objects.L1Cache_Controller.L1Cache_Controller object at 0x7fb6b66a8ef0>, <m5.objects.L1Cache_Controller.L1Cache_Controller object at 0x7fb6b66b0ef0>, <m5.objects.L1Cache_Controller.L1Cache_Controller object at 0x7fb6b663bef0>, <m5.objects.L1Cache_Controller.L1Cache_Controller object at 0x7fb6b6643ef0>, <m5.objects.L1Cache_Controller.L1Cache_Controller object at 0x7fb6b664def0>, <m5.objects.L1Cache_Controller.L1Cache_Controller object at 0x7fb6b6655ef0>, <m5.objects.L1Cache_Controller.L1Cache_Controller object at 0x7fb6b6660ef0>, <m5.objects.L1Cache_Controller.L1Cache_Controller object at 0x7fb6b6668ef0>, <m5.objects.L1Cache_Controller.L1Cache_Controller object at 0x7fb6b6671ef0>, <m5.objects.L1Cache_Controller.L1Cache_Controller object at 0x7fb6b65faef0>, <m5.objects.L1Cache_Controller.L1Cache_Controller object at 0x7fb6b6602ef0>, <m5.objects.L1Cache_Controller.L1Cache_Controller object at 0x7fb6b660cef0>, <m5.objects.L1Cache_Controller.L1Cache_Controller object at 0x7fb6b6615ef0>, <m5.objects.L1Cache_Controller.L1Cache_Controller object at 0x7fb6b661fef0>, <m5.objects.L1Cache_Controller.L1Cache_Controller object at 0x7fb6b6628ef0>, <m5.objects.L1Cache_Controller.L1Cache_Controller object at 0x7fb6b6632ef0>, <m5.objects.L1Cache_Controller.L1Cache_Controller object at 0x7fb6b65baef0>, <m5.objects.L1Cache_Controller.L1Cache_Controller object at 0x7fb6b65c3ef0>, <m5.objects.L1Cache_Controller.L1Cache_Controller object at 0x7fb6b65ccef0>, <m5.objects.L1Cache_Controller.L1Cache_Controller object at 0x7fb6b65d4ef0>, <m5.objects.L1Cache_Controller.L1Cache_Controller object at 0x7fb6b65deef0>, <m5.objects.L1Cache_Controller.L1Cache_Controller object at 0x7fb6b65e6ef0>, <m5.objects.L1Cache_Controller.L1Cache_Controller object at 0x7fb6b65f0ef0>, <m5.objects.L1Cache_Controller.L1Cache_Controller object at 0x7fb6b65f8ef0>, <m5.objects.L1Cache_Controller.L1Cache_Controller object at 0x7fb6b6582ef0>, <m5.objects.L1Cache_Controller.L1Cache_Controller object at 0x7fb6b658aef0>, <m5.objects.L1Cache_Controller.L1Cache_Controller object at 0x7fb6b6595ef0>, <m5.objects.L1Cache_Controller.L1Cache_Controller object at 0x7fb6b659eef0>, <m5.objects.L1Cache_Controller.L1Cache_Controller object at 0x7fb6b65a7ef0>, <m5.objects.L1Cache_Controller.L1Cache_Controller object at 0x7fb6b65b0ef0>, <m5.objects.L1Cache_Controller.L1Cache_Controller object at 0x7fb6b65b8ef0>, <m5.objects.L1Cache_Controller.L1Cache_Controller object at 0x7fb6b6544ef0>, <m5.objects.L1Cache_Controller.L1Cache_Controller object at 0x7fb6b654cef0>, <m5.objects.L1Cache_Controller.L1Cache_Controller object at 0x7fb6b6556ef0>, <m5.objects.L1Cache_Controller.L1Cache_Controller object at 0x7fb6b655eef0>, <m5.objects.L1Cache_Controller.L1Cache_Controller object at 0x7fb6b6567ef0>, <m5.objects.L1Cache_Controller.L1Cache_Controller object at 0x7fb6b6570ef0>, <m5.objects.L1Cache_Controller.L1Cache_Controller object at 0x7fb6b6579ef0>, <m5.objects.L1Cache_Controller.L1Cache_Controller object at 0x7fb6b6503ef0>, <m5.objects.L1Cache_Controller.L1Cache_Controller object at 0x7fb6b650cef0>, <m5.objects.L1Cache_Controller.L1Cache_Controller object at 0x7fb6b6516ef0>, <m5.objects.L1Cache_Controller.L1Cache_Controller object at 0x7fb6b651eef0>, <m5.objects.L1Cache_Controller.L1Cache_Controller object at 0x7fb6b6527ef0>, <m5.objects.L1Cache_Controller.L1Cache_Controller object at 0x7fb6b652fef0>, <m5.objects.L1Cache_Controller.L1Cache_Controller object at 0x7fb6b6538ef0>, <m5.objects.L1Cache_Controller.L1Cache_Controller object at 0x7fb6b64c1ef0>, <m5.objects.L1Cache_Controller.L1Cache_Controller object at 0x7fb6b64caef0>]

l2_caches(64)=[<m5.objects.L2Cache_Controller.L2Cache_Controller object at 0x7fb6b64d3be0>, <m5.objects.L2Cache_Controller.L2Cache_Controller object at 0x7fb6b64db668>, <m5.objects.L2Cache_Controller.L2Cache_Controller object at 0x7fb6b64e50f0>, <m5.objects.L2Cache_Controller.L2Cache_Controller object at 0x7fb6b64e5b38>, <m5.objects.L2Cache_Controller.L2Cache_Controller object at 0x7fb6b64ed5c0>, <m5.objects.L2Cache_Controller.L2Cache_Controller object at 0x7fb6b64f7048>, <m5.objects.L2Cache_Controller.L2Cache_Controller object at 0x7fb6b64f7a90>, <m5.objects.L2Cache_Controller.L2Cache_Controller object at 0x7fb6b647f518>, <m5.objects.L2Cache_Controller.L2Cache_Controller object at 0x7fb6b647ff60>, <m5.objects.L2Cache_Controller.L2Cache_Controller object at 0x7fb6b64889e8>, <m5.objects.L2Cache_Controller.L2Cache_Controller object at 0x7fb6b6491470>, <m5.objects.L2Cache_Controller.L2Cache_Controller object at 0x7fb6b6491eb8>, <m5.objects.L2Cache_Controller.L2Cache_Controller object at 0x7fb6b6499940>, <m5.objects.L2Cache_Controller.L2Cache_Controller object at 0x7fb6b64a33c8>, <m5.objects.L2Cache_Controller.L2Cache_Controller object at 0x7fb6b64a3e10>, <m5.objects.L2Cache_Controller.L2Cache_Controller object at 0x7fb6b64ac898>, <m5.objects.L2Cache_Controller.L2Cache_Controller object at 0x7fb6b64b4320>, <m5.objects.L2Cache_Controller.L2Cache_Controller object at 0x7fb6b64b4d68>, <m5.objects.L2Cache_Controller.L2Cache_Controller object at 0x7fb6b643e7f0>, <m5.objects.L2Cache_Controller.L2Cache_Controller object at 0x7fb6b6447278>, <m5.objects.L2Cache_Controller.L2Cache_Controller object at 0x7fb6b6447cc0>, <m5.objects.L2Cache_Controller.L2Cache_Controller object at 0x7fb6b6451748>, <m5.objects.L2Cache_Controller.L2Cache_Controller object at 0x7fb6b645a1d0>, <m5.objects.L2Cache_Controller.L2Cache_Controller object at 0x7fb6b645ac18>, <m5.objects.L2Cache_Controller.L2Cache_Controller object at 0x7fb6b64626a0>, <m5.objects.L2Cache_Controller.L2Cache_Controller object at 0x7fb6b646c128>, <m5.objects.L2Cache_Controller.L2Cache_Controller object at 0x7fb6b646cb70>, <m5.objects.L2Cache_Controller.L2Cache_Controller object at 0x7fb6b64745f8>, <m5.objects.L2Cache_Controller.L2Cache_Controller object at 0x7fb6b63fd080>, <m5.objects.L2Cache_Controller.L2Cache_Controller object at 0x7fb6b63fdac8>, <m5.objects.L2Cache_Controller.L2Cache_Controller object at 0x7fb6b6407550>, <m5.objects.L2Cache_Controller.L2Cache_Controller object at 0x7fb6b6407f98>, <m5.objects.L2Cache_Controller.L2Cache_Controller object at 0x7fb6b640fa20>, <m5.objects.L2Cache_Controller.L2Cache_Controller object at 0x7fb6b64194a8>, <m5.objects.L2Cache_Controller.L2Cache_Controller object at 0x7fb6b6419ef0>, <m5.objects.L2Cache_Controller.L2Cache_Controller object at 0x7fb6b6422978>, <m5.objects.L2Cache_Controller.L2Cache_Controller object at 0x7fb6b6429400>, <m5.objects.L2Cache_Controller.L2Cache_Controller object at 0x7fb6b6429e48>, <m5.objects.L2Cache_Controller.L2Cache_Controller object at 0x7fb6b64338d0>, <m5.objects.L2Cache_Controller.L2Cache_Controller object at 0x7fb6b63bb358>, <m5.objects.L2Cache_Controller.L2Cache_Controller object at 0x7fb6b63bbda0>, <m5.objects.L2Cache_Controller.L2Cache_Controller object at 0x7fb6b63c6828>, <m5.objects.L2Cache_Controller.L2Cache_Controller object at 0x7fb6b63d02b0>, <m5.objects.L2Cache_Controller.L2Cache_Controller object at 0x7fb6b63d0cf8>, <m5.objects.L2Cache_Controller.L2Cache_Controller object at 0x7fb6b63d7780>, <m5.objects.L2Cache_Controller.L2Cache_Controller object at 0x7fb6b63e1208>, <m5.objects.L2Cache_Controller.L2Cache_Controller object at 0x7fb6b63e1c50>, <m5.objects.L2Cache_Controller.L2Cache_Controller object at 0x7fb6b63e96d8>, <m5.objects.L2Cache_Controller.L2Cache_Controller object at 0x7fb6b63f2160>, <m5.objects.L2Cache_Controller.L2Cache_Controller object at 0x7fb6b63f2ba8>, <m5.objects.L2Cache_Controller.L2Cache_Controller object at 0x7fb6b637b630>, <m5.objects.L2Cache_Controller.L2Cache_Controller object at 0x7fb6b63830b8>, <m5.objects.L2Cache_Controller.L2Cache_Controller object at 0x7fb6b6383b00>, <m5.objects.L2Cache_Controller.L2Cache_Controller object at 0x7fb6b638c588>, <m5.objects.L2Cache_Controller.L2Cache_Controller object at 0x7fb6b638cfd0>, <m5.objects.L2Cache_Controller.L2Cache_Controller object at 0x7fb6b6396a58>, <m5.objects.L2Cache_Controller.L2Cache_Controller object at 0x7fb6b639e4e0>, <m5.objects.L2Cache_Controller.L2Cache_Controller object at 0x7fb6b639ef28>, <m5.objects.L2Cache_Controller.L2Cache_Controller object at 0x7fb6b63a89b0>, <m5.objects.L2Cache_Controller.L2Cache_Controller object at 0x7fb6b63b1438>, <m5.objects.L2Cache_Controller.L2Cache_Controller object at 0x7fb6b63b1e80>, <m5.objects.L2Cache_Controller.L2Cache_Controller object at 0x7fb6b633a908>, <m5.objects.L2Cache_Controller.L2Cache_Controller object at 0x7fb6b6343390>, <m5.objects.L2Cache_Controller.L2Cache_Controller object at 0x7fb6b6343dd8>]

dirs(32)=[<m5.objects.Directory_Controller.Directory_Controller object at 0x7fb6b634b748>, <m5.objects.Directory_Controller.Directory_Controller object at 0x7fb6b634b978>, <m5.objects.Directory_Controller.Directory_Controller object at 0x7fb6b634bba8>, <m5.objects.Directory_Controller.Directory_Controller object at 0x7fb6b634bdd8>, <m5.objects.Directory_Controller.Directory_Controller object at 0x7fb6b6357048>, <m5.objects.Directory_Controller.Directory_Controller object at 0x7fb6b6357278>, <m5.objects.Directory_Controller.Directory_Controller object at 0x7fb6b63574a8>, <m5.objects.Directory_Controller.Directory_Controller object at 0x7fb6b63576d8>, <m5.objects.Directory_Controller.Directory_Controller object at 0x7fb6b6357908>, <m5.objects.Directory_Controller.Directory_Controller object at 0x7fb6b6357b38>, <m5.objects.Directory_Controller.Directory_Controller object at 0x7fb6b6357d68>, <m5.objects.Directory_Controller.Directory_Controller object at 0x7fb6b6357f98>, <m5.objects.Directory_Controller.Directory_Controller object at 0x7fb6b6361208>, <m5.objects.Directory_Controller.Directory_Controller object at 0x7fb6b6361438>, <m5.objects.Directory_Controller.Directory_Controller object at 0x7fb6b6361668>, <m5.objects.Directory_Controller.Directory_Controller object at 0x7fb6b6361898>, <m5.objects.Directory_Controller.Directory_Controller object at 0x7fb6b6361ac8>, <m5.objects.Directory_Controller.Directory_Controller object at 0x7fb6b6361cf8>, <m5.objects.Directory_Controller.Directory_Controller object at 0x7fb6b6361f28>, <m5.objects.Directory_Controller.Directory_Controller object at 0x7fb6b636d198>, <m5.objects.Directory_Controller.Directory_Controller object at 0x7fb6b636d3c8>, <m5.objects.Directory_Controller.Directory_Controller object at 0x7fb6b636d5f8>, <m5.objects.Directory_Controller.Directory_Controller object at 0x7fb6b636d828>, <m5.objects.Directory_Controller.Directory_Controller object at 0x7fb6b636da58>, <m5.objects.Directory_Controller.Directory_Controller object at 0x7fb6b636dc88>, <m5.objects.Directory_Controller.Directory_Controller object at 0x7fb6b636deb8>, <m5.objects.Directory_Controller.Directory_Controller object at 0x7fb6b6379128>, <m5.objects.Directory_Controller.Directory_Controller object at 0x7fb6b6379358>, <m5.objects.Directory_Controller.Directory_Controller object at 0x7fb6b6379588>, <m5.objects.Directory_Controller.Directory_Controller object at 0x7fb6b63797b8>, <m5.objects.Directory_Controller.Directory_Controller object at 0x7fb6b63799e8>, <m5.objects.Directory_Controller.Directory_Controller object at 0x7fb6b6379c18>]

dmas(2)=[<m5.objects.DMA_Controller.DMA_Controller object at 0x7fb6b62dd5f8>, <m5.objects.DMA_Controller.DMA_Controller object at 0x7fb6b62ddc18>]

others(0)=[]

ingesting topologies_and_routing/nr_lists/dbl_bfly_x_noci_nndbt_picky.nrl w/ # rotuers = 84
warn: Memory mode will be changed to atomic_noncaching
warn: Physical memory size specified is 32GB which is greater than 3GB.  Twice the number of memory controllers would be created.
