FileNotFoundError: [Errno 2] No such file or directory: 'topologies_and_routing/nr_lists/butter_donut_x_noci_nndbt_picky.nrl'

At:
  /home/min/a/green456/netsmith_icpp24/auto_top_gem5/configs/topologies/FS_NoCI_EscapeVirtualNetworks.py(570): ingest_flat_map_list
  /home/min/a/green456/netsmith_icpp24/auto_top_gem5/configs/topologies/FS_NoCI_EscapeVirtualNetworks.py(108): makeTopology
  /home/min/a/green456/netsmith_icpp24/auto_top_gem5/configs/ruby/Ruby.py(224): create_system
  configs/netsmith/netsmith_parsec.py(218): build_test_system
  configs/netsmith/netsmith_parsec.py(518): <module>
  build/X86/python/m5/main.py(434): main
gem5 Simulator System.  https://www.gem5.org
gem5 is copyrighted software; use the --copyright option for details.

gem5 version 22.0.0.2
gem5 compiled Apr 28 2024 22:23:45
gem5 started Jun 14 2024 14:31:09
gem5 executing on mnemosyne.ecn.purdue.edu, pid 14227
command line: ./build/X86/gem5.fast -d ./parsec_results/noci_32GBxDDR4_2envs_38GHz_2MBl2_allthreads_64lwidth_sameflowpriority_lwbufadj/1000warmup_1000simul/freqmine/butter_donut_x_noci_nndbt_picky_none/ configs/netsmith/netsmith_parsec.py -I 1000 --insts_after_warmup 1000 --benchmark_parsec freqmine -r 1 --checkpoint-dir ./parsec_noci_checkpoints/roi_checkpoint/system_5/freqmine --router_map_file ./topologies_and_routing/topo_maps/noci/butter_donut_x_noci.map --flat_vn_map_file topologies_and_routing/vn_maps/butter_donut_x_noci_nndbt_picky_none_2vns.vn --flat_nr_map_file topologies_and_routing/nr_lists/butter_donut_x_noci_nndbt_picky.nrl --topology FS_NoCI_EscapeVirtualNetworks --noi_routers 20 --noc_clk 3.8GHz --sys-clock 3.8GHz --cpu-clock 3.8GHz --ruby-clock 3.8GHz --noi_clk 2.7GHz --num-cpus 64 --mem_or_coh mem --num-dirs 32 --caches --num-l2caches 64 --l2_size 2MB --num_chiplets 4 --mem-size 32GB --ruby --network garnet --link-width-bits 64 --kernel /home/yara/mithuna2/green456/netsmith_autotop/auto_top_gem5/parsec_disk_image/vmlinux-5.4.49 --disk-image /home/yara/mithuna2/green456/netsmith_autotop/auto_top_gem5/parsec_disk_image/x86-parsec --cpu-type X86O3CPU --routing-algorithm 2 --use_escape_vns --vcs-per-vnet 10 --evn_n_deadlock_free 1 --evn_min_n_deadlock_free 2 --evn_deadlock_partition 8 --mem-type DDR4_2400_16x4

l1_caches(64)=[<m5.objects.L1Cache_Controller.L1Cache_Controller object at 0x7f8871717e10>, <m5.objects.L1Cache_Controller.L1Cache_Controller object at 0x7f887171be80>, <m5.objects.L1Cache_Controller.L1Cache_Controller object at 0x7f8871728e80>, <m5.objects.L1Cache_Controller.L1Cache_Controller object at 0x7f8871731e80>, <m5.objects.L1Cache_Controller.L1Cache_Controller object at 0x7f887173ae80>, <m5.objects.L1Cache_Controller.L1Cache_Controller object at 0x7f88716c3e80>, <m5.objects.L1Cache_Controller.L1Cache_Controller object at 0x7f88716cde80>, <m5.objects.L1Cache_Controller.L1Cache_Controller object at 0x7f88716d6e80>, <m5.objects.L1Cache_Controller.L1Cache_Controller object at 0x7f88716dfe80>, <m5.objects.L1Cache_Controller.L1Cache_Controller object at 0x7f88716e7e80>, <m5.objects.L1Cache_Controller.L1Cache_Controller object at 0x7f88716f1e80>, <m5.objects.L1Cache_Controller.L1Cache_Controller object at 0x7f88716f9e80>, <m5.objects.L1Cache_Controller.L1Cache_Controller object at 0x7f8871683e80>, <m5.objects.L1Cache_Controller.L1Cache_Controller object at 0x7f887168be80>, <m5.objects.L1Cache_Controller.L1Cache_Controller object at 0x7f8871695e80>, <m5.objects.L1Cache_Controller.L1Cache_Controller object at 0x7f887169ee80>, <m5.objects.L1Cache_Controller.L1Cache_Controller object at 0x7f88716a7e80>, <m5.objects.L1Cache_Controller.L1Cache_Controller object at 0x7f88716b0e80>, <m5.objects.L1Cache_Controller.L1Cache_Controller object at 0x7f88716b9e80>, <m5.objects.L1Cache_Controller.L1Cache_Controller object at 0x7f8871643e80>, <m5.objects.L1Cache_Controller.L1Cache_Controller object at 0x7f887164be80>, <m5.objects.L1Cache_Controller.L1Cache_Controller object at 0x7f8871655e80>, <m5.objects.L1Cache_Controller.L1Cache_Controller object at 0x7f887165de80>, <m5.objects.L1Cache_Controller.L1Cache_Controller object at 0x7f8871668e80>, <m5.objects.L1Cache_Controller.L1Cache_Controller object at 0x7f8871670e80>, <m5.objects.L1Cache_Controller.L1Cache_Controller object at 0x7f8871679e80>, <m5.objects.L1Cache_Controller.L1Cache_Controller object at 0x7f8871602e80>, <m5.objects.L1Cache_Controller.L1Cache_Controller object at 0x7f887160ae80>, <m5.objects.L1Cache_Controller.L1Cache_Controller object at 0x7f8871615e80>, <m5.objects.L1Cache_Controller.L1Cache_Controller object at 0x7f887161de80>, <m5.objects.L1Cache_Controller.L1Cache_Controller object at 0x7f8871628e80>, <m5.objects.L1Cache_Controller.L1Cache_Controller object at 0x7f8871630e80>, <m5.objects.L1Cache_Controller.L1Cache_Controller object at 0x7f887163ae80>, <m5.objects.L1Cache_Controller.L1Cache_Controller object at 0x7f88715c2e80>, <m5.objects.L1Cache_Controller.L1Cache_Controller object at 0x7f88715cbe80>, <m5.objects.L1Cache_Controller.L1Cache_Controller object at 0x7f88715d4e80>, <m5.objects.L1Cache_Controller.L1Cache_Controller object at 0x7f88715dce80>, <m5.objects.L1Cache_Controller.L1Cache_Controller object at 0x7f88715e6e80>, <m5.objects.L1Cache_Controller.L1Cache_Controller object at 0x7f88715eee80>, <m5.objects.L1Cache_Controller.L1Cache_Controller object at 0x7f88715f8e80>, <m5.objects.L1Cache_Controller.L1Cache_Controller object at 0x7f8871600e80>, <m5.objects.L1Cache_Controller.L1Cache_Controller object at 0x7f887158ae80>, <m5.objects.L1Cache_Controller.L1Cache_Controller object at 0x7f8871594e80>, <m5.objects.L1Cache_Controller.L1Cache_Controller object at 0x7f887159de80>, <m5.objects.L1Cache_Controller.L1Cache_Controller object at 0x7f88715a6e80>, <m5.objects.L1Cache_Controller.L1Cache_Controller object at 0x7f88715afe80>, <m5.objects.L1Cache_Controller.L1Cache_Controller object at 0x7f88715b8e80>, <m5.objects.L1Cache_Controller.L1Cache_Controller object at 0x7f88715c0e80>, <m5.objects.L1Cache_Controller.L1Cache_Controller object at 0x7f887154ce80>, <m5.objects.L1Cache_Controller.L1Cache_Controller object at 0x7f8871554e80>, <m5.objects.L1Cache_Controller.L1Cache_Controller object at 0x7f887155ee80>, <m5.objects.L1Cache_Controller.L1Cache_Controller object at 0x7f8871566e80>, <m5.objects.L1Cache_Controller.L1Cache_Controller object at 0x7f887156fe80>, <m5.objects.L1Cache_Controller.L1Cache_Controller object at 0x7f8871578e80>, <m5.objects.L1Cache_Controller.L1Cache_Controller object at 0x7f8871502e80>, <m5.objects.L1Cache_Controller.L1Cache_Controller object at 0x7f887150be80>, <m5.objects.L1Cache_Controller.L1Cache_Controller object at 0x7f8871515e80>, <m5.objects.L1Cache_Controller.L1Cache_Controller object at 0x7f887151ee80>, <m5.objects.L1Cache_Controller.L1Cache_Controller object at 0x7f8871527e80>, <m5.objects.L1Cache_Controller.L1Cache_Controller object at 0x7f887152fe80>, <m5.objects.L1Cache_Controller.L1Cache_Controller object at 0x7f8871537e80>, <m5.objects.L1Cache_Controller.L1Cache_Controller object at 0x7f8871540e80>, <m5.objects.L1Cache_Controller.L1Cache_Controller object at 0x7f88714c9e80>, <m5.objects.L1Cache_Controller.L1Cache_Controller object at 0x7f88714d2e80>]

l2_caches(64)=[<m5.objects.L2Cache_Controller.L2Cache_Controller object at 0x7f88714dbb70>, <m5.objects.L2Cache_Controller.L2Cache_Controller object at 0x7f88714e35f8>, <m5.objects.L2Cache_Controller.L2Cache_Controller object at 0x7f88714ed080>, <m5.objects.L2Cache_Controller.L2Cache_Controller object at 0x7f88714edac8>, <m5.objects.L2Cache_Controller.L2Cache_Controller object at 0x7f88714f5550>, <m5.objects.L2Cache_Controller.L2Cache_Controller object at 0x7f88714f5f98>, <m5.objects.L2Cache_Controller.L2Cache_Controller object at 0x7f88714ffa20>, <m5.objects.L2Cache_Controller.L2Cache_Controller object at 0x7f88714884a8>, <m5.objects.L2Cache_Controller.L2Cache_Controller object at 0x7f8871488ef0>, <m5.objects.L2Cache_Controller.L2Cache_Controller object at 0x7f8871491978>, <m5.objects.L2Cache_Controller.L2Cache_Controller object at 0x7f8871499400>, <m5.objects.L2Cache_Controller.L2Cache_Controller object at 0x7f8871499e48>, <m5.objects.L2Cache_Controller.L2Cache_Controller object at 0x7f88714a18d0>, <m5.objects.L2Cache_Controller.L2Cache_Controller object at 0x7f88714ab358>, <m5.objects.L2Cache_Controller.L2Cache_Controller object at 0x7f88714abda0>, <m5.objects.L2Cache_Controller.L2Cache_Controller object at 0x7f88714b4828>, <m5.objects.L2Cache_Controller.L2Cache_Controller object at 0x7f88714bd2b0>, <m5.objects.L2Cache_Controller.L2Cache_Controller object at 0x7f88714bdcf8>, <m5.objects.L2Cache_Controller.L2Cache_Controller object at 0x7f8871446780>, <m5.objects.L2Cache_Controller.L2Cache_Controller object at 0x7f887144f208>, <m5.objects.L2Cache_Controller.L2Cache_Controller object at 0x7f887144fc50>, <m5.objects.L2Cache_Controller.L2Cache_Controller object at 0x7f88714596d8>, <m5.objects.L2Cache_Controller.L2Cache_Controller object at 0x7f8871462160>, <m5.objects.L2Cache_Controller.L2Cache_Controller object at 0x7f8871462ba8>, <m5.objects.L2Cache_Controller.L2Cache_Controller object at 0x7f887146a630>, <m5.objects.L2Cache_Controller.L2Cache_Controller object at 0x7f88714740b8>, <m5.objects.L2Cache_Controller.L2Cache_Controller object at 0x7f8871474b00>, <m5.objects.L2Cache_Controller.L2Cache_Controller object at 0x7f887147c588>, <m5.objects.L2Cache_Controller.L2Cache_Controller object at 0x7f887147cfd0>, <m5.objects.L2Cache_Controller.L2Cache_Controller object at 0x7f8871405a58>, <m5.objects.L2Cache_Controller.L2Cache_Controller object at 0x7f887140f4e0>, <m5.objects.L2Cache_Controller.L2Cache_Controller object at 0x7f887140ff28>, <m5.objects.L2Cache_Controller.L2Cache_Controller object at 0x7f88714179b0>, <m5.objects.L2Cache_Controller.L2Cache_Controller object at 0x7f8871421438>, <m5.objects.L2Cache_Controller.L2Cache_Controller object at 0x7f8871421e80>, <m5.objects.L2Cache_Controller.L2Cache_Controller object at 0x7f887142a908>, <m5.objects.L2Cache_Controller.L2Cache_Controller object at 0x7f8871431390>, <m5.objects.L2Cache_Controller.L2Cache_Controller object at 0x7f8871431dd8>, <m5.objects.L2Cache_Controller.L2Cache_Controller object at 0x7f887143b860>, <m5.objects.L2Cache_Controller.L2Cache_Controller object at 0x7f88713c42e8>, <m5.objects.L2Cache_Controller.L2Cache_Controller object at 0x7f88713c4d30>, <m5.objects.L2Cache_Controller.L2Cache_Controller object at 0x7f88713ce7b8>, <m5.objects.L2Cache_Controller.L2Cache_Controller object at 0x7f88713d8240>, <m5.objects.L2Cache_Controller.L2Cache_Controller object at 0x7f88713d8c88>, <m5.objects.L2Cache_Controller.L2Cache_Controller object at 0x7f88713e0710>, <m5.objects.L2Cache_Controller.L2Cache_Controller object at 0x7f88713e9198>, <m5.objects.L2Cache_Controller.L2Cache_Controller object at 0x7f88713e9be0>, <m5.objects.L2Cache_Controller.L2Cache_Controller object at 0x7f88713f2668>, <m5.objects.L2Cache_Controller.L2Cache_Controller object at 0x7f88713fa0f0>, <m5.objects.L2Cache_Controller.L2Cache_Controller object at 0x7f88713fab38>, <m5.objects.L2Cache_Controller.L2Cache_Controller object at 0x7f88713845c0>, <m5.objects.L2Cache_Controller.L2Cache_Controller object at 0x7f887138b048>, <m5.objects.L2Cache_Controller.L2Cache_Controller object at 0x7f887138ba90>, <m5.objects.L2Cache_Controller.L2Cache_Controller object at 0x7f8871394518>, <m5.objects.L2Cache_Controller.L2Cache_Controller object at 0x7f8871394f60>, <m5.objects.L2Cache_Controller.L2Cache_Controller object at 0x7f887139f9e8>, <m5.objects.L2Cache_Controller.L2Cache_Controller object at 0x7f88713a6470>, <m5.objects.L2Cache_Controller.L2Cache_Controller object at 0x7f88713a6eb8>, <m5.objects.L2Cache_Controller.L2Cache_Controller object at 0x7f88713b1940>, <m5.objects.L2Cache_Controller.L2Cache_Controller object at 0x7f88713b93c8>, <m5.objects.L2Cache_Controller.L2Cache_Controller object at 0x7f88713b9e10>, <m5.objects.L2Cache_Controller.L2Cache_Controller object at 0x7f8871342898>, <m5.objects.L2Cache_Controller.L2Cache_Controller object at 0x7f887134b320>, <m5.objects.L2Cache_Controller.L2Cache_Controller object at 0x7f887134bd68>]

dirs(32)=[<m5.objects.Directory_Controller.Directory_Controller object at 0x7f88713536d8>, <m5.objects.Directory_Controller.Directory_Controller object at 0x7f8871353908>, <m5.objects.Directory_Controller.Directory_Controller object at 0x7f8871353b38>, <m5.objects.Directory_Controller.Directory_Controller object at 0x7f8871353d68>, <m5.objects.Directory_Controller.Directory_Controller object at 0x7f8871353f98>, <m5.objects.Directory_Controller.Directory_Controller object at 0x7f887135f208>, <m5.objects.Directory_Controller.Directory_Controller object at 0x7f887135f438>, <m5.objects.Directory_Controller.Directory_Controller object at 0x7f887135f668>, <m5.objects.Directory_Controller.Directory_Controller object at 0x7f887135f898>, <m5.objects.Directory_Controller.Directory_Controller object at 0x7f887135fac8>, <m5.objects.Directory_Controller.Directory_Controller object at 0x7f887135fcf8>, <m5.objects.Directory_Controller.Directory_Controller object at 0x7f887135ff28>, <m5.objects.Directory_Controller.Directory_Controller object at 0x7f887136b198>, <m5.objects.Directory_Controller.Directory_Controller object at 0x7f887136b3c8>, <m5.objects.Directory_Controller.Directory_Controller object at 0x7f887136b5f8>, <m5.objects.Directory_Controller.Directory_Controller object at 0x7f887136b828>, <m5.objects.Directory_Controller.Directory_Controller object at 0x7f887136ba58>, <m5.objects.Directory_Controller.Directory_Controller object at 0x7f887136bc88>, <m5.objects.Directory_Controller.Directory_Controller object at 0x7f887136beb8>, <m5.objects.Directory_Controller.Directory_Controller object at 0x7f8871373128>, <m5.objects.Directory_Controller.Directory_Controller object at 0x7f8871373358>, <m5.objects.Directory_Controller.Directory_Controller object at 0x7f8871373588>, <m5.objects.Directory_Controller.Directory_Controller object at 0x7f88713737b8>, <m5.objects.Directory_Controller.Directory_Controller object at 0x7f88713739e8>, <m5.objects.Directory_Controller.Directory_Controller object at 0x7f8871373c18>, <m5.objects.Directory_Controller.Directory_Controller object at 0x7f8871373e48>, <m5.objects.Directory_Controller.Directory_Controller object at 0x7f88713810b8>, <m5.objects.Directory_Controller.Directory_Controller object at 0x7f88713812e8>, <m5.objects.Directory_Controller.Directory_Controller object at 0x7f8871381518>, <m5.objects.Directory_Controller.Directory_Controller object at 0x7f8871381748>, <m5.objects.Directory_Controller.Directory_Controller object at 0x7f8871381978>, <m5.objects.Directory_Controller.Directory_Controller object at 0x7f8871381ba8>]

dmas(2)=[<m5.objects.DMA_Controller.DMA_Controller object at 0x7f88712e5588>, <m5.objects.DMA_Controller.DMA_Controller object at 0x7f88712e5ba8>]

others(0)=[]

ingesting topologies_and_routing/nr_lists/butter_donut_x_noci_nndbt_picky.nrl w/ # rotuers = 84
warn: Memory mode will be changed to atomic_noncaching
warn: Physical memory size specified is 32GB which is greater than 3GB.  Twice the number of memory controllers would be created.
