FileNotFoundError: [Errno 2] No such file or directory: 'topologies_and_routing/nr_lists/butter_donut_x_noci_nndbt_picky.nrl'

At:
  /home/min/a/green456/netsmith_icpp24/auto_top_gem5/configs/topologies/FS_NoCI_EscapeVirtualNetworks.py(570): ingest_flat_map_list
  /home/min/a/green456/netsmith_icpp24/auto_top_gem5/configs/topologies/FS_NoCI_EscapeVirtualNetworks.py(108): makeTopology
  /home/min/a/green456/netsmith_icpp24/auto_top_gem5/configs/ruby/Ruby.py(224): create_system
  configs/netsmith/netsmith_parsec.py(218): build_test_system
  configs/netsmith/netsmith_parsec.py(518): <module>
  build/X86/python/m5/main.py(434): main
gem5 Simulator System.  https://www.gem5.org
gem5 is copyrighted software; use the --copyright option for details.

gem5 version 22.0.0.2
gem5 compiled Apr 28 2024 22:23:45
gem5 started Jun 14 2024 14:46:13
gem5 executing on mnemosyne.ecn.purdue.edu, pid 16504
command line: ./build/X86/gem5.fast -d ./parsec_results/noci_32GBxDDR4_2envs_38GHz_2MBl2_allthreads_64lwidth_sameflowpriority_lwbufadj/1000warmup_1000simul/raytrace/butter_donut_x_noci_nndbt_picky_none/ configs/netsmith/netsmith_parsec.py -I 1000 --insts_after_warmup 1000 --benchmark_parsec raytrace -r 1 --checkpoint-dir ./parsec_noci_checkpoints/roi_checkpoint/system_5/raytrace --router_map_file ./topologies_and_routing/topo_maps/noci/butter_donut_x_noci.map --flat_vn_map_file topologies_and_routing/vn_maps/butter_donut_x_noci_nndbt_picky_none_2vns.vn --flat_nr_map_file topologies_and_routing/nr_lists/butter_donut_x_noci_nndbt_picky.nrl --topology FS_NoCI_EscapeVirtualNetworks --noi_routers 20 --noc_clk 3.8GHz --sys-clock 3.8GHz --cpu-clock 3.8GHz --ruby-clock 3.8GHz --noi_clk 2.7GHz --num-cpus 64 --mem_or_coh mem --num-dirs 32 --caches --num-l2caches 64 --l2_size 2MB --num_chiplets 4 --mem-size 32GB --ruby --network garnet --link-width-bits 64 --kernel /home/yara/mithuna2/green456/netsmith_autotop/auto_top_gem5/parsec_disk_image/vmlinux-5.4.49 --disk-image /home/yara/mithuna2/green456/netsmith_autotop/auto_top_gem5/parsec_disk_image/x86-parsec --cpu-type X86O3CPU --routing-algorithm 2 --use_escape_vns --vcs-per-vnet 10 --evn_n_deadlock_free 1 --evn_min_n_deadlock_free 2 --evn_deadlock_partition 8 --mem-type DDR4_2400_16x4

l1_caches(64)=[<m5.objects.L1Cache_Controller.L1Cache_Controller object at 0x7f87589e7e10>, <m5.objects.L1Cache_Controller.L1Cache_Controller object at 0x7f87589ebe80>, <m5.objects.L1Cache_Controller.L1Cache_Controller object at 0x7f87589f8e80>, <m5.objects.L1Cache_Controller.L1Cache_Controller object at 0x7f8758a01e80>, <m5.objects.L1Cache_Controller.L1Cache_Controller object at 0x7f8758a0ae80>, <m5.objects.L1Cache_Controller.L1Cache_Controller object at 0x7f8758993e80>, <m5.objects.L1Cache_Controller.L1Cache_Controller object at 0x7f875899de80>, <m5.objects.L1Cache_Controller.L1Cache_Controller object at 0x7f87589a6e80>, <m5.objects.L1Cache_Controller.L1Cache_Controller object at 0x7f87589afe80>, <m5.objects.L1Cache_Controller.L1Cache_Controller object at 0x7f87589b7e80>, <m5.objects.L1Cache_Controller.L1Cache_Controller object at 0x7f87589c1e80>, <m5.objects.L1Cache_Controller.L1Cache_Controller object at 0x7f87589c9e80>, <m5.objects.L1Cache_Controller.L1Cache_Controller object at 0x7f8758953e80>, <m5.objects.L1Cache_Controller.L1Cache_Controller object at 0x7f875895be80>, <m5.objects.L1Cache_Controller.L1Cache_Controller object at 0x7f8758965e80>, <m5.objects.L1Cache_Controller.L1Cache_Controller object at 0x7f875896ee80>, <m5.objects.L1Cache_Controller.L1Cache_Controller object at 0x7f8758977e80>, <m5.objects.L1Cache_Controller.L1Cache_Controller object at 0x7f8758980e80>, <m5.objects.L1Cache_Controller.L1Cache_Controller object at 0x7f8758989e80>, <m5.objects.L1Cache_Controller.L1Cache_Controller object at 0x7f8758913e80>, <m5.objects.L1Cache_Controller.L1Cache_Controller object at 0x7f875891be80>, <m5.objects.L1Cache_Controller.L1Cache_Controller object at 0x7f8758925e80>, <m5.objects.L1Cache_Controller.L1Cache_Controller object at 0x7f875892de80>, <m5.objects.L1Cache_Controller.L1Cache_Controller object at 0x7f8758938e80>, <m5.objects.L1Cache_Controller.L1Cache_Controller object at 0x7f8758940e80>, <m5.objects.L1Cache_Controller.L1Cache_Controller object at 0x7f8758949e80>, <m5.objects.L1Cache_Controller.L1Cache_Controller object at 0x7f87588d2e80>, <m5.objects.L1Cache_Controller.L1Cache_Controller object at 0x7f87588dae80>, <m5.objects.L1Cache_Controller.L1Cache_Controller object at 0x7f87588e5e80>, <m5.objects.L1Cache_Controller.L1Cache_Controller object at 0x7f87588ede80>, <m5.objects.L1Cache_Controller.L1Cache_Controller object at 0x7f87588f8e80>, <m5.objects.L1Cache_Controller.L1Cache_Controller object at 0x7f8758900e80>, <m5.objects.L1Cache_Controller.L1Cache_Controller object at 0x7f875890ae80>, <m5.objects.L1Cache_Controller.L1Cache_Controller object at 0x7f8758892e80>, <m5.objects.L1Cache_Controller.L1Cache_Controller object at 0x7f875889be80>, <m5.objects.L1Cache_Controller.L1Cache_Controller object at 0x7f87588a4e80>, <m5.objects.L1Cache_Controller.L1Cache_Controller object at 0x7f87588ace80>, <m5.objects.L1Cache_Controller.L1Cache_Controller object at 0x7f87588b6e80>, <m5.objects.L1Cache_Controller.L1Cache_Controller object at 0x7f87588bee80>, <m5.objects.L1Cache_Controller.L1Cache_Controller object at 0x7f87588c8e80>, <m5.objects.L1Cache_Controller.L1Cache_Controller object at 0x7f87588d0e80>, <m5.objects.L1Cache_Controller.L1Cache_Controller object at 0x7f875885ae80>, <m5.objects.L1Cache_Controller.L1Cache_Controller object at 0x7f8758864e80>, <m5.objects.L1Cache_Controller.L1Cache_Controller object at 0x7f875886de80>, <m5.objects.L1Cache_Controller.L1Cache_Controller object at 0x7f8758876e80>, <m5.objects.L1Cache_Controller.L1Cache_Controller object at 0x7f8758880e80>, <m5.objects.L1Cache_Controller.L1Cache_Controller object at 0x7f8758889e80>, <m5.objects.L1Cache_Controller.L1Cache_Controller object at 0x7f8758891e80>, <m5.objects.L1Cache_Controller.L1Cache_Controller object at 0x7f875881ce80>, <m5.objects.L1Cache_Controller.L1Cache_Controller object at 0x7f8758824e80>, <m5.objects.L1Cache_Controller.L1Cache_Controller object at 0x7f875882ee80>, <m5.objects.L1Cache_Controller.L1Cache_Controller object at 0x7f8758836e80>, <m5.objects.L1Cache_Controller.L1Cache_Controller object at 0x7f875883fe80>, <m5.objects.L1Cache_Controller.L1Cache_Controller object at 0x7f8758848e80>, <m5.objects.L1Cache_Controller.L1Cache_Controller object at 0x7f87587d2e80>, <m5.objects.L1Cache_Controller.L1Cache_Controller object at 0x7f87587dbe80>, <m5.objects.L1Cache_Controller.L1Cache_Controller object at 0x7f87587e5e80>, <m5.objects.L1Cache_Controller.L1Cache_Controller object at 0x7f87587eee80>, <m5.objects.L1Cache_Controller.L1Cache_Controller object at 0x7f87587f6e80>, <m5.objects.L1Cache_Controller.L1Cache_Controller object at 0x7f87587ffe80>, <m5.objects.L1Cache_Controller.L1Cache_Controller object at 0x7f8758807e80>, <m5.objects.L1Cache_Controller.L1Cache_Controller object at 0x7f8758810e80>, <m5.objects.L1Cache_Controller.L1Cache_Controller object at 0x7f8758799e80>, <m5.objects.L1Cache_Controller.L1Cache_Controller object at 0x7f87587a2e80>]

l2_caches(64)=[<m5.objects.L2Cache_Controller.L2Cache_Controller object at 0x7f87587abb70>, <m5.objects.L2Cache_Controller.L2Cache_Controller object at 0x7f87587b35f8>, <m5.objects.L2Cache_Controller.L2Cache_Controller object at 0x7f87587bd080>, <m5.objects.L2Cache_Controller.L2Cache_Controller object at 0x7f87587bdac8>, <m5.objects.L2Cache_Controller.L2Cache_Controller object at 0x7f87587c5550>, <m5.objects.L2Cache_Controller.L2Cache_Controller object at 0x7f87587c5f98>, <m5.objects.L2Cache_Controller.L2Cache_Controller object at 0x7f87587cfa20>, <m5.objects.L2Cache_Controller.L2Cache_Controller object at 0x7f87587584a8>, <m5.objects.L2Cache_Controller.L2Cache_Controller object at 0x7f8758758ef0>, <m5.objects.L2Cache_Controller.L2Cache_Controller object at 0x7f8758760978>, <m5.objects.L2Cache_Controller.L2Cache_Controller object at 0x7f8758769400>, <m5.objects.L2Cache_Controller.L2Cache_Controller object at 0x7f8758769e48>, <m5.objects.L2Cache_Controller.L2Cache_Controller object at 0x7f87587718d0>, <m5.objects.L2Cache_Controller.L2Cache_Controller object at 0x7f875877b358>, <m5.objects.L2Cache_Controller.L2Cache_Controller object at 0x7f875877bda0>, <m5.objects.L2Cache_Controller.L2Cache_Controller object at 0x7f8758784828>, <m5.objects.L2Cache_Controller.L2Cache_Controller object at 0x7f875878d2b0>, <m5.objects.L2Cache_Controller.L2Cache_Controller object at 0x7f875878dcf8>, <m5.objects.L2Cache_Controller.L2Cache_Controller object at 0x7f8758716780>, <m5.objects.L2Cache_Controller.L2Cache_Controller object at 0x7f875871f208>, <m5.objects.L2Cache_Controller.L2Cache_Controller object at 0x7f875871fc50>, <m5.objects.L2Cache_Controller.L2Cache_Controller object at 0x7f87587296d8>, <m5.objects.L2Cache_Controller.L2Cache_Controller object at 0x7f8758732160>, <m5.objects.L2Cache_Controller.L2Cache_Controller object at 0x7f8758732ba8>, <m5.objects.L2Cache_Controller.L2Cache_Controller object at 0x7f875873a630>, <m5.objects.L2Cache_Controller.L2Cache_Controller object at 0x7f87587440b8>, <m5.objects.L2Cache_Controller.L2Cache_Controller object at 0x7f8758744b00>, <m5.objects.L2Cache_Controller.L2Cache_Controller object at 0x7f875874c588>, <m5.objects.L2Cache_Controller.L2Cache_Controller object at 0x7f875874cfd0>, <m5.objects.L2Cache_Controller.L2Cache_Controller object at 0x7f87586d5a58>, <m5.objects.L2Cache_Controller.L2Cache_Controller object at 0x7f87586df4e0>, <m5.objects.L2Cache_Controller.L2Cache_Controller object at 0x7f87586dff28>, <m5.objects.L2Cache_Controller.L2Cache_Controller object at 0x7f87586e79b0>, <m5.objects.L2Cache_Controller.L2Cache_Controller object at 0x7f87586f1438>, <m5.objects.L2Cache_Controller.L2Cache_Controller object at 0x7f87586f1e80>, <m5.objects.L2Cache_Controller.L2Cache_Controller object at 0x7f87586fa908>, <m5.objects.L2Cache_Controller.L2Cache_Controller object at 0x7f8758701390>, <m5.objects.L2Cache_Controller.L2Cache_Controller object at 0x7f8758701dd8>, <m5.objects.L2Cache_Controller.L2Cache_Controller object at 0x7f875870b860>, <m5.objects.L2Cache_Controller.L2Cache_Controller object at 0x7f87586952e8>, <m5.objects.L2Cache_Controller.L2Cache_Controller object at 0x7f8758695d30>, <m5.objects.L2Cache_Controller.L2Cache_Controller object at 0x7f875869d7b8>, <m5.objects.L2Cache_Controller.L2Cache_Controller object at 0x7f87586a8240>, <m5.objects.L2Cache_Controller.L2Cache_Controller object at 0x7f87586a8c88>, <m5.objects.L2Cache_Controller.L2Cache_Controller object at 0x7f87586b0710>, <m5.objects.L2Cache_Controller.L2Cache_Controller object at 0x7f87586b9198>, <m5.objects.L2Cache_Controller.L2Cache_Controller object at 0x7f87586b9be0>, <m5.objects.L2Cache_Controller.L2Cache_Controller object at 0x7f87586c2668>, <m5.objects.L2Cache_Controller.L2Cache_Controller object at 0x7f87586ca0f0>, <m5.objects.L2Cache_Controller.L2Cache_Controller object at 0x7f87586cab38>, <m5.objects.L2Cache_Controller.L2Cache_Controller object at 0x7f87586545c0>, <m5.objects.L2Cache_Controller.L2Cache_Controller object at 0x7f875865b048>, <m5.objects.L2Cache_Controller.L2Cache_Controller object at 0x7f875865ba90>, <m5.objects.L2Cache_Controller.L2Cache_Controller object at 0x7f8758663518>, <m5.objects.L2Cache_Controller.L2Cache_Controller object at 0x7f8758663f60>, <m5.objects.L2Cache_Controller.L2Cache_Controller object at 0x7f875866f9e8>, <m5.objects.L2Cache_Controller.L2Cache_Controller object at 0x7f8758676470>, <m5.objects.L2Cache_Controller.L2Cache_Controller object at 0x7f8758676eb8>, <m5.objects.L2Cache_Controller.L2Cache_Controller object at 0x7f8758681940>, <m5.objects.L2Cache_Controller.L2Cache_Controller object at 0x7f875868a3c8>, <m5.objects.L2Cache_Controller.L2Cache_Controller object at 0x7f875868ae10>, <m5.objects.L2Cache_Controller.L2Cache_Controller object at 0x7f8758612898>, <m5.objects.L2Cache_Controller.L2Cache_Controller object at 0x7f875861b320>, <m5.objects.L2Cache_Controller.L2Cache_Controller object at 0x7f875861bd68>]

dirs(32)=[<m5.objects.Directory_Controller.Directory_Controller object at 0x7f87586236d8>, <m5.objects.Directory_Controller.Directory_Controller object at 0x7f8758623908>, <m5.objects.Directory_Controller.Directory_Controller object at 0x7f8758623b38>, <m5.objects.Directory_Controller.Directory_Controller object at 0x7f8758623d68>, <m5.objects.Directory_Controller.Directory_Controller object at 0x7f8758623f98>, <m5.objects.Directory_Controller.Directory_Controller object at 0x7f875862f208>, <m5.objects.Directory_Controller.Directory_Controller object at 0x7f875862f438>, <m5.objects.Directory_Controller.Directory_Controller object at 0x7f875862f668>, <m5.objects.Directory_Controller.Directory_Controller object at 0x7f875862f898>, <m5.objects.Directory_Controller.Directory_Controller object at 0x7f875862fac8>, <m5.objects.Directory_Controller.Directory_Controller object at 0x7f875862fcf8>, <m5.objects.Directory_Controller.Directory_Controller object at 0x7f875862ff28>, <m5.objects.Directory_Controller.Directory_Controller object at 0x7f875863b198>, <m5.objects.Directory_Controller.Directory_Controller object at 0x7f875863b3c8>, <m5.objects.Directory_Controller.Directory_Controller object at 0x7f875863b5f8>, <m5.objects.Directory_Controller.Directory_Controller object at 0x7f875863b828>, <m5.objects.Directory_Controller.Directory_Controller object at 0x7f875863ba58>, <m5.objects.Directory_Controller.Directory_Controller object at 0x7f875863bc88>, <m5.objects.Directory_Controller.Directory_Controller object at 0x7f875863beb8>, <m5.objects.Directory_Controller.Directory_Controller object at 0x7f8758644128>, <m5.objects.Directory_Controller.Directory_Controller object at 0x7f8758644358>, <m5.objects.Directory_Controller.Directory_Controller object at 0x7f8758644588>, <m5.objects.Directory_Controller.Directory_Controller object at 0x7f87586447b8>, <m5.objects.Directory_Controller.Directory_Controller object at 0x7f87586449e8>, <m5.objects.Directory_Controller.Directory_Controller object at 0x7f8758644c18>, <m5.objects.Directory_Controller.Directory_Controller object at 0x7f8758644e48>, <m5.objects.Directory_Controller.Directory_Controller object at 0x7f87586510b8>, <m5.objects.Directory_Controller.Directory_Controller object at 0x7f87586512e8>, <m5.objects.Directory_Controller.Directory_Controller object at 0x7f8758651518>, <m5.objects.Directory_Controller.Directory_Controller object at 0x7f8758651748>, <m5.objects.Directory_Controller.Directory_Controller object at 0x7f8758651978>, <m5.objects.Directory_Controller.Directory_Controller object at 0x7f8758651ba8>]

dmas(2)=[<m5.objects.DMA_Controller.DMA_Controller object at 0x7f87585b5588>, <m5.objects.DMA_Controller.DMA_Controller object at 0x7f87585b5ba8>]

others(0)=[]

ingesting topologies_and_routing/nr_lists/butter_donut_x_noci_nndbt_picky.nrl w/ # rotuers = 84
warn: Memory mode will be changed to atomic_noncaching
warn: Physical memory size specified is 32GB which is greater than 3GB.  Twice the number of memory controllers would be created.
