FileNotFoundError: [Errno 2] No such file or directory: 'topologies_and_routing/nr_lists/kite_med_noci_nndbt_picky.nrl'

At:
  /home/min/a/green456/netsmith_icpp24/auto_top_gem5/configs/topologies/FS_NoCI_EscapeVirtualNetworks.py(570): ingest_flat_map_list
  /home/min/a/green456/netsmith_icpp24/auto_top_gem5/configs/topologies/FS_NoCI_EscapeVirtualNetworks.py(108): makeTopology
  /home/min/a/green456/netsmith_icpp24/auto_top_gem5/configs/ruby/Ruby.py(224): create_system
  configs/netsmith/netsmith_parsec.py(218): build_test_system
  configs/netsmith/netsmith_parsec.py(518): <module>
  build/X86/python/m5/main.py(434): main
gem5 Simulator System.  https://www.gem5.org
gem5 is copyrighted software; use the --copyright option for details.

gem5 version 22.0.0.2
gem5 compiled Apr 28 2024 22:23:45
gem5 started Jun 14 2024 14:57:30
gem5 executing on mnemosyne.ecn.purdue.edu, pid 18312
command line: ./build/X86/gem5.fast -d ./parsec_results/noci_32GBxDDR4_2envs_38GHz_2MBl2_allthreads_64lwidth_sameflowpriority_lwbufadj/1000warmup_1000simul/streamcluster/kite_med_noci_nndbt_picky_none/ configs/netsmith/netsmith_parsec.py -I 1000 --insts_after_warmup 1000 --benchmark_parsec streamcluster -r 1 --checkpoint-dir ./parsec_noci_checkpoints/roi_checkpoint/system_5/streamcluster --router_map_file ./topologies_and_routing/topo_maps/noci/kite_med_noci.map --flat_vn_map_file topologies_and_routing/vn_maps/kite_med_noci_nndbt_picky_none_2vns.vn --flat_nr_map_file topologies_and_routing/nr_lists/kite_med_noci_nndbt_picky.nrl --topology FS_NoCI_EscapeVirtualNetworks --noi_routers 20 --noc_clk 3.8GHz --sys-clock 3.8GHz --cpu-clock 3.8GHz --ruby-clock 3.8GHz --noi_clk 3.0GHz --num-cpus 64 --mem_or_coh mem --num-dirs 32 --caches --num-l2caches 64 --l2_size 2MB --num_chiplets 4 --mem-size 32GB --ruby --network garnet --link-width-bits 64 --kernel /home/yara/mithuna2/green456/netsmith_autotop/auto_top_gem5/parsec_disk_image/vmlinux-5.4.49 --disk-image /home/yara/mithuna2/green456/netsmith_autotop/auto_top_gem5/parsec_disk_image/x86-parsec --cpu-type X86O3CPU --routing-algorithm 2 --use_escape_vns --vcs-per-vnet 10 --evn_n_deadlock_free 1 --evn_min_n_deadlock_free 2 --evn_deadlock_partition 8 --mem-type DDR4_2400_16x4

l1_caches(64)=[<m5.objects.L1Cache_Controller.L1Cache_Controller object at 0x7fa5fed1fe80>, <m5.objects.L1Cache_Controller.L1Cache_Controller object at 0x7fa5fed23ef0>, <m5.objects.L1Cache_Controller.L1Cache_Controller object at 0x7fa5fed30ef0>, <m5.objects.L1Cache_Controller.L1Cache_Controller object at 0x7fa5fed39ef0>, <m5.objects.L1Cache_Controller.L1Cache_Controller object at 0x7fa5fed42ef0>, <m5.objects.L1Cache_Controller.L1Cache_Controller object at 0x7fa5feccbef0>, <m5.objects.L1Cache_Controller.L1Cache_Controller object at 0x7fa5fecd4ef0>, <m5.objects.L1Cache_Controller.L1Cache_Controller object at 0x7fa5fecdeef0>, <m5.objects.L1Cache_Controller.L1Cache_Controller object at 0x7fa5fece7ef0>, <m5.objects.L1Cache_Controller.L1Cache_Controller object at 0x7fa5fecefef0>, <m5.objects.L1Cache_Controller.L1Cache_Controller object at 0x7fa5fecf9ef0>, <m5.objects.L1Cache_Controller.L1Cache_Controller object at 0x7fa5fed01ef0>, <m5.objects.L1Cache_Controller.L1Cache_Controller object at 0x7fa5fec8bef0>, <m5.objects.L1Cache_Controller.L1Cache_Controller object at 0x7fa5fec93ef0>, <m5.objects.L1Cache_Controller.L1Cache_Controller object at 0x7fa5fec9def0>, <m5.objects.L1Cache_Controller.L1Cache_Controller object at 0x7fa5feca6ef0>, <m5.objects.L1Cache_Controller.L1Cache_Controller object at 0x7fa5fecafef0>, <m5.objects.L1Cache_Controller.L1Cache_Controller object at 0x7fa5fecb8ef0>, <m5.objects.L1Cache_Controller.L1Cache_Controller object at 0x7fa5fecc0ef0>, <m5.objects.L1Cache_Controller.L1Cache_Controller object at 0x7fa5fec4bef0>, <m5.objects.L1Cache_Controller.L1Cache_Controller object at 0x7fa5fec53ef0>, <m5.objects.L1Cache_Controller.L1Cache_Controller object at 0x7fa5fec5def0>, <m5.objects.L1Cache_Controller.L1Cache_Controller object at 0x7fa5fec65ef0>, <m5.objects.L1Cache_Controller.L1Cache_Controller object at 0x7fa5fec70ef0>, <m5.objects.L1Cache_Controller.L1Cache_Controller object at 0x7fa5fec78ef0>, <m5.objects.L1Cache_Controller.L1Cache_Controller object at 0x7fa5fec82ef0>, <m5.objects.L1Cache_Controller.L1Cache_Controller object at 0x7fa5fec0aef0>, <m5.objects.L1Cache_Controller.L1Cache_Controller object at 0x7fa5fec12ef0>, <m5.objects.L1Cache_Controller.L1Cache_Controller object at 0x7fa5fec1cef0>, <m5.objects.L1Cache_Controller.L1Cache_Controller object at 0x7fa5fec25ef0>, <m5.objects.L1Cache_Controller.L1Cache_Controller object at 0x7fa5fec2fef0>, <m5.objects.L1Cache_Controller.L1Cache_Controller object at 0x7fa5fec38ef0>, <m5.objects.L1Cache_Controller.L1Cache_Controller object at 0x7fa5fec42ef0>, <m5.objects.L1Cache_Controller.L1Cache_Controller object at 0x7fa5febcaef0>, <m5.objects.L1Cache_Controller.L1Cache_Controller object at 0x7fa5febd3ef0>, <m5.objects.L1Cache_Controller.L1Cache_Controller object at 0x7fa5febdcef0>, <m5.objects.L1Cache_Controller.L1Cache_Controller object at 0x7fa5febe5ef0>, <m5.objects.L1Cache_Controller.L1Cache_Controller object at 0x7fa5febeeef0>, <m5.objects.L1Cache_Controller.L1Cache_Controller object at 0x7fa5febf6ef0>, <m5.objects.L1Cache_Controller.L1Cache_Controller object at 0x7fa5fec00ef0>, <m5.objects.L1Cache_Controller.L1Cache_Controller object at 0x7fa5fec08ef0>, <m5.objects.L1Cache_Controller.L1Cache_Controller object at 0x7fa5feb92ef0>, <m5.objects.L1Cache_Controller.L1Cache_Controller object at 0x7fa5feb9aef0>, <m5.objects.L1Cache_Controller.L1Cache_Controller object at 0x7fa5feba5ef0>, <m5.objects.L1Cache_Controller.L1Cache_Controller object at 0x7fa5febaeef0>, <m5.objects.L1Cache_Controller.L1Cache_Controller object at 0x7fa5febb7ef0>, <m5.objects.L1Cache_Controller.L1Cache_Controller object at 0x7fa5febc0ef0>, <m5.objects.L1Cache_Controller.L1Cache_Controller object at 0x7fa5febc9ef0>, <m5.objects.L1Cache_Controller.L1Cache_Controller object at 0x7fa5feb53ef0>, <m5.objects.L1Cache_Controller.L1Cache_Controller object at 0x7fa5feb5bef0>, <m5.objects.L1Cache_Controller.L1Cache_Controller object at 0x7fa5feb65ef0>, <m5.objects.L1Cache_Controller.L1Cache_Controller object at 0x7fa5feb6eef0>, <m5.objects.L1Cache_Controller.L1Cache_Controller object at 0x7fa5feb77ef0>, <m5.objects.L1Cache_Controller.L1Cache_Controller object at 0x7fa5feb80ef0>, <m5.objects.L1Cache_Controller.L1Cache_Controller object at 0x7fa5feb89ef0>, <m5.objects.L1Cache_Controller.L1Cache_Controller object at 0x7fa5feb13ef0>, <m5.objects.L1Cache_Controller.L1Cache_Controller object at 0x7fa5feb1cef0>, <m5.objects.L1Cache_Controller.L1Cache_Controller object at 0x7fa5feb26ef0>, <m5.objects.L1Cache_Controller.L1Cache_Controller object at 0x7fa5feb2fef0>, <m5.objects.L1Cache_Controller.L1Cache_Controller object at 0x7fa5feb37ef0>, <m5.objects.L1Cache_Controller.L1Cache_Controller object at 0x7fa5feb3fef0>, <m5.objects.L1Cache_Controller.L1Cache_Controller object at 0x7fa5feb48ef0>, <m5.objects.L1Cache_Controller.L1Cache_Controller object at 0x7fa5fead1ef0>, <m5.objects.L1Cache_Controller.L1Cache_Controller object at 0x7fa5feadaef0>]

l2_caches(64)=[<m5.objects.L2Cache_Controller.L2Cache_Controller object at 0x7fa5feae3be0>, <m5.objects.L2Cache_Controller.L2Cache_Controller object at 0x7fa5feaeb668>, <m5.objects.L2Cache_Controller.L2Cache_Controller object at 0x7fa5feaf50f0>, <m5.objects.L2Cache_Controller.L2Cache_Controller object at 0x7fa5feaf5b38>, <m5.objects.L2Cache_Controller.L2Cache_Controller object at 0x7fa5feafd5c0>, <m5.objects.L2Cache_Controller.L2Cache_Controller object at 0x7fa5feb07048>, <m5.objects.L2Cache_Controller.L2Cache_Controller object at 0x7fa5feb07a90>, <m5.objects.L2Cache_Controller.L2Cache_Controller object at 0x7fa5fea8f518>, <m5.objects.L2Cache_Controller.L2Cache_Controller object at 0x7fa5fea8ff60>, <m5.objects.L2Cache_Controller.L2Cache_Controller object at 0x7fa5fea989e8>, <m5.objects.L2Cache_Controller.L2Cache_Controller object at 0x7fa5feaa1470>, <m5.objects.L2Cache_Controller.L2Cache_Controller object at 0x7fa5feaa1eb8>, <m5.objects.L2Cache_Controller.L2Cache_Controller object at 0x7fa5feaa9940>, <m5.objects.L2Cache_Controller.L2Cache_Controller object at 0x7fa5feab33c8>, <m5.objects.L2Cache_Controller.L2Cache_Controller object at 0x7fa5feab3e10>, <m5.objects.L2Cache_Controller.L2Cache_Controller object at 0x7fa5feabc898>, <m5.objects.L2Cache_Controller.L2Cache_Controller object at 0x7fa5feac4320>, <m5.objects.L2Cache_Controller.L2Cache_Controller object at 0x7fa5feac4d68>, <m5.objects.L2Cache_Controller.L2Cache_Controller object at 0x7fa5fea4e7f0>, <m5.objects.L2Cache_Controller.L2Cache_Controller object at 0x7fa5fea57278>, <m5.objects.L2Cache_Controller.L2Cache_Controller object at 0x7fa5fea57cc0>, <m5.objects.L2Cache_Controller.L2Cache_Controller object at 0x7fa5fea61748>, <m5.objects.L2Cache_Controller.L2Cache_Controller object at 0x7fa5fea6a1d0>, <m5.objects.L2Cache_Controller.L2Cache_Controller object at 0x7fa5fea6ac18>, <m5.objects.L2Cache_Controller.L2Cache_Controller object at 0x7fa5fea726a0>, <m5.objects.L2Cache_Controller.L2Cache_Controller object at 0x7fa5fea7c128>, <m5.objects.L2Cache_Controller.L2Cache_Controller object at 0x7fa5fea7cb70>, <m5.objects.L2Cache_Controller.L2Cache_Controller object at 0x7fa5fea845f8>, <m5.objects.L2Cache_Controller.L2Cache_Controller object at 0x7fa5fea0e080>, <m5.objects.L2Cache_Controller.L2Cache_Controller object at 0x7fa5fea0eac8>, <m5.objects.L2Cache_Controller.L2Cache_Controller object at 0x7fa5fea17550>, <m5.objects.L2Cache_Controller.L2Cache_Controller object at 0x7fa5fea17f98>, <m5.objects.L2Cache_Controller.L2Cache_Controller object at 0x7fa5fea1fa20>, <m5.objects.L2Cache_Controller.L2Cache_Controller object at 0x7fa5fea294a8>, <m5.objects.L2Cache_Controller.L2Cache_Controller object at 0x7fa5fea29ef0>, <m5.objects.L2Cache_Controller.L2Cache_Controller object at 0x7fa5fea32978>, <m5.objects.L2Cache_Controller.L2Cache_Controller object at 0x7fa5fea39400>, <m5.objects.L2Cache_Controller.L2Cache_Controller object at 0x7fa5fea39e48>, <m5.objects.L2Cache_Controller.L2Cache_Controller object at 0x7fa5fea438d0>, <m5.objects.L2Cache_Controller.L2Cache_Controller object at 0x7fa5fe9cb358>, <m5.objects.L2Cache_Controller.L2Cache_Controller object at 0x7fa5fe9cbda0>, <m5.objects.L2Cache_Controller.L2Cache_Controller object at 0x7fa5fe9d4828>, <m5.objects.L2Cache_Controller.L2Cache_Controller object at 0x7fa5fe9e02b0>, <m5.objects.L2Cache_Controller.L2Cache_Controller object at 0x7fa5fe9e0cf8>, <m5.objects.L2Cache_Controller.L2Cache_Controller object at 0x7fa5fe9e7780>, <m5.objects.L2Cache_Controller.L2Cache_Controller object at 0x7fa5fe9f1208>, <m5.objects.L2Cache_Controller.L2Cache_Controller object at 0x7fa5fe9f1c50>, <m5.objects.L2Cache_Controller.L2Cache_Controller object at 0x7fa5fe9f96d8>, <m5.objects.L2Cache_Controller.L2Cache_Controller object at 0x7fa5fea02160>, <m5.objects.L2Cache_Controller.L2Cache_Controller object at 0x7fa5fea02ba8>, <m5.objects.L2Cache_Controller.L2Cache_Controller object at 0x7fa5fe98b630>, <m5.objects.L2Cache_Controller.L2Cache_Controller object at 0x7fa5fe9930b8>, <m5.objects.L2Cache_Controller.L2Cache_Controller object at 0x7fa5fe993b00>, <m5.objects.L2Cache_Controller.L2Cache_Controller object at 0x7fa5fe99c588>, <m5.objects.L2Cache_Controller.L2Cache_Controller object at 0x7fa5fe99cfd0>, <m5.objects.L2Cache_Controller.L2Cache_Controller object at 0x7fa5fe9a6a58>, <m5.objects.L2Cache_Controller.L2Cache_Controller object at 0x7fa5fe9ae4e0>, <m5.objects.L2Cache_Controller.L2Cache_Controller object at 0x7fa5fe9aef28>, <m5.objects.L2Cache_Controller.L2Cache_Controller object at 0x7fa5fe9b89b0>, <m5.objects.L2Cache_Controller.L2Cache_Controller object at 0x7fa5fe9c1438>, <m5.objects.L2Cache_Controller.L2Cache_Controller object at 0x7fa5fe9c1e80>, <m5.objects.L2Cache_Controller.L2Cache_Controller object at 0x7fa5fe94a908>, <m5.objects.L2Cache_Controller.L2Cache_Controller object at 0x7fa5fe953390>, <m5.objects.L2Cache_Controller.L2Cache_Controller object at 0x7fa5fe953dd8>]

dirs(32)=[<m5.objects.Directory_Controller.Directory_Controller object at 0x7fa5fe95b748>, <m5.objects.Directory_Controller.Directory_Controller object at 0x7fa5fe95b978>, <m5.objects.Directory_Controller.Directory_Controller object at 0x7fa5fe95bba8>, <m5.objects.Directory_Controller.Directory_Controller object at 0x7fa5fe95bdd8>, <m5.objects.Directory_Controller.Directory_Controller object at 0x7fa5fe967048>, <m5.objects.Directory_Controller.Directory_Controller object at 0x7fa5fe967278>, <m5.objects.Directory_Controller.Directory_Controller object at 0x7fa5fe9674a8>, <m5.objects.Directory_Controller.Directory_Controller object at 0x7fa5fe9676d8>, <m5.objects.Directory_Controller.Directory_Controller object at 0x7fa5fe967908>, <m5.objects.Directory_Controller.Directory_Controller object at 0x7fa5fe967b38>, <m5.objects.Directory_Controller.Directory_Controller object at 0x7fa5fe967d68>, <m5.objects.Directory_Controller.Directory_Controller object at 0x7fa5fe967f98>, <m5.objects.Directory_Controller.Directory_Controller object at 0x7fa5fe971208>, <m5.objects.Directory_Controller.Directory_Controller object at 0x7fa5fe971438>, <m5.objects.Directory_Controller.Directory_Controller object at 0x7fa5fe971668>, <m5.objects.Directory_Controller.Directory_Controller object at 0x7fa5fe971898>, <m5.objects.Directory_Controller.Directory_Controller object at 0x7fa5fe971ac8>, <m5.objects.Directory_Controller.Directory_Controller object at 0x7fa5fe971cf8>, <m5.objects.Directory_Controller.Directory_Controller object at 0x7fa5fe971f28>, <m5.objects.Directory_Controller.Directory_Controller object at 0x7fa5fe97d198>, <m5.objects.Directory_Controller.Directory_Controller object at 0x7fa5fe97d3c8>, <m5.objects.Directory_Controller.Directory_Controller object at 0x7fa5fe97d5f8>, <m5.objects.Directory_Controller.Directory_Controller object at 0x7fa5fe97d828>, <m5.objects.Directory_Controller.Directory_Controller object at 0x7fa5fe97da58>, <m5.objects.Directory_Controller.Directory_Controller object at 0x7fa5fe97dc88>, <m5.objects.Directory_Controller.Directory_Controller object at 0x7fa5fe97deb8>, <m5.objects.Directory_Controller.Directory_Controller object at 0x7fa5fe989128>, <m5.objects.Directory_Controller.Directory_Controller object at 0x7fa5fe989358>, <m5.objects.Directory_Controller.Directory_Controller object at 0x7fa5fe989588>, <m5.objects.Directory_Controller.Directory_Controller object at 0x7fa5fe9897b8>, <m5.objects.Directory_Controller.Directory_Controller object at 0x7fa5fe9899e8>, <m5.objects.Directory_Controller.Directory_Controller object at 0x7fa5fe989c18>]

dmas(2)=[<m5.objects.DMA_Controller.DMA_Controller object at 0x7fa5fe8ec5f8>, <m5.objects.DMA_Controller.DMA_Controller object at 0x7fa5fe8ecc18>]

others(0)=[]

ingesting topologies_and_routing/nr_lists/kite_med_noci_nndbt_picky.nrl w/ # rotuers = 84
warn: Memory mode will be changed to atomic_noncaching
warn: Physical memory size specified is 32GB which is greater than 3GB.  Twice the number of memory controllers would be created.
