FileNotFoundError: [Errno 2] No such file or directory: 'topologies_and_routing/nr_lists/dbl_bfly_x_noci_nndbt_picky.nrl'

At:
  /home/min/a/green456/netsmith_icpp24/auto_top_gem5/configs/topologies/FS_NoCI_EscapeVirtualNetworks.py(570): ingest_flat_map_list
  /home/min/a/green456/netsmith_icpp24/auto_top_gem5/configs/topologies/FS_NoCI_EscapeVirtualNetworks.py(108): makeTopology
  /home/min/a/green456/netsmith_icpp24/auto_top_gem5/configs/ruby/Ruby.py(224): create_system
  configs/netsmith/netsmith_parsec.py(218): build_test_system
  configs/netsmith/netsmith_parsec.py(518): <module>
  build/X86/python/m5/main.py(434): main
gem5 Simulator System.  https://www.gem5.org
gem5 is copyrighted software; use the --copyright option for details.

gem5 version 22.0.0.2
gem5 compiled Apr 28 2024 22:23:45
gem5 started Jun 14 2024 15:01:18
gem5 executing on mnemosyne.ecn.purdue.edu, pid 19006
command line: ./build/X86/gem5.fast -d ./parsec_results/noci_32GBxDDR4_2envs_38GHz_2MBl2_allthreads_64lwidth_sameflowpriority_lwbufadj/1000warmup_1000simul/streamcluster/dbl_bfly_x_noci_nndbt_picky_none/ configs/netsmith/netsmith_parsec.py -I 1000 --insts_after_warmup 1000 --benchmark_parsec streamcluster -r 1 --checkpoint-dir ./parsec_noci_checkpoints/roi_checkpoint/system_5/streamcluster --router_map_file ./topologies_and_routing/topo_maps/noci/dbl_bfly_x_noci.map --flat_vn_map_file topologies_and_routing/vn_maps/dbl_bfly_x_noci_nndbt_picky_none_2vns.vn --flat_nr_map_file topologies_and_routing/nr_lists/dbl_bfly_x_noci_nndbt_picky.nrl --topology FS_NoCI_EscapeVirtualNetworks --noi_routers 20 --noc_clk 3.8GHz --sys-clock 3.8GHz --cpu-clock 3.8GHz --ruby-clock 3.8GHz --noi_clk 2.7GHz --num-cpus 64 --mem_or_coh mem --num-dirs 32 --caches --num-l2caches 64 --l2_size 2MB --num_chiplets 4 --mem-size 32GB --ruby --network garnet --link-width-bits 64 --kernel /home/yara/mithuna2/green456/netsmith_autotop/auto_top_gem5/parsec_disk_image/vmlinux-5.4.49 --disk-image /home/yara/mithuna2/green456/netsmith_autotop/auto_top_gem5/parsec_disk_image/x86-parsec --cpu-type X86O3CPU --routing-algorithm 2 --use_escape_vns --vcs-per-vnet 10 --evn_n_deadlock_free 1 --evn_min_n_deadlock_free 2 --evn_deadlock_partition 8 --mem-type DDR4_2400_16x4

l1_caches(64)=[<m5.objects.L1Cache_Controller.L1Cache_Controller object at 0x7fdf4c6cfe10>, <m5.objects.L1Cache_Controller.L1Cache_Controller object at 0x7fdf4c6d3e80>, <m5.objects.L1Cache_Controller.L1Cache_Controller object at 0x7fdf4c6e0e80>, <m5.objects.L1Cache_Controller.L1Cache_Controller object at 0x7fdf4c6e9e80>, <m5.objects.L1Cache_Controller.L1Cache_Controller object at 0x7fdf4c6f2e80>, <m5.objects.L1Cache_Controller.L1Cache_Controller object at 0x7fdf4c67be80>, <m5.objects.L1Cache_Controller.L1Cache_Controller object at 0x7fdf4c685e80>, <m5.objects.L1Cache_Controller.L1Cache_Controller object at 0x7fdf4c68ee80>, <m5.objects.L1Cache_Controller.L1Cache_Controller object at 0x7fdf4c697e80>, <m5.objects.L1Cache_Controller.L1Cache_Controller object at 0x7fdf4c69fe80>, <m5.objects.L1Cache_Controller.L1Cache_Controller object at 0x7fdf4c6a9e80>, <m5.objects.L1Cache_Controller.L1Cache_Controller object at 0x7fdf4c6b1e80>, <m5.objects.L1Cache_Controller.L1Cache_Controller object at 0x7fdf4c63be80>, <m5.objects.L1Cache_Controller.L1Cache_Controller object at 0x7fdf4c643e80>, <m5.objects.L1Cache_Controller.L1Cache_Controller object at 0x7fdf4c64de80>, <m5.objects.L1Cache_Controller.L1Cache_Controller object at 0x7fdf4c656e80>, <m5.objects.L1Cache_Controller.L1Cache_Controller object at 0x7fdf4c65fe80>, <m5.objects.L1Cache_Controller.L1Cache_Controller object at 0x7fdf4c668e80>, <m5.objects.L1Cache_Controller.L1Cache_Controller object at 0x7fdf4c671e80>, <m5.objects.L1Cache_Controller.L1Cache_Controller object at 0x7fdf4c5fbe80>, <m5.objects.L1Cache_Controller.L1Cache_Controller object at 0x7fdf4c603e80>, <m5.objects.L1Cache_Controller.L1Cache_Controller object at 0x7fdf4c60de80>, <m5.objects.L1Cache_Controller.L1Cache_Controller object at 0x7fdf4c615e80>, <m5.objects.L1Cache_Controller.L1Cache_Controller object at 0x7fdf4c620e80>, <m5.objects.L1Cache_Controller.L1Cache_Controller object at 0x7fdf4c628e80>, <m5.objects.L1Cache_Controller.L1Cache_Controller object at 0x7fdf4c631e80>, <m5.objects.L1Cache_Controller.L1Cache_Controller object at 0x7fdf4c5bae80>, <m5.objects.L1Cache_Controller.L1Cache_Controller object at 0x7fdf4c5c2e80>, <m5.objects.L1Cache_Controller.L1Cache_Controller object at 0x7fdf4c5cde80>, <m5.objects.L1Cache_Controller.L1Cache_Controller object at 0x7fdf4c5d5e80>, <m5.objects.L1Cache_Controller.L1Cache_Controller object at 0x7fdf4c5e0e80>, <m5.objects.L1Cache_Controller.L1Cache_Controller object at 0x7fdf4c5e8e80>, <m5.objects.L1Cache_Controller.L1Cache_Controller object at 0x7fdf4c5f2e80>, <m5.objects.L1Cache_Controller.L1Cache_Controller object at 0x7fdf4c57ae80>, <m5.objects.L1Cache_Controller.L1Cache_Controller object at 0x7fdf4c583e80>, <m5.objects.L1Cache_Controller.L1Cache_Controller object at 0x7fdf4c58ce80>, <m5.objects.L1Cache_Controller.L1Cache_Controller object at 0x7fdf4c594e80>, <m5.objects.L1Cache_Controller.L1Cache_Controller object at 0x7fdf4c59ee80>, <m5.objects.L1Cache_Controller.L1Cache_Controller object at 0x7fdf4c5a6e80>, <m5.objects.L1Cache_Controller.L1Cache_Controller object at 0x7fdf4c5b0e80>, <m5.objects.L1Cache_Controller.L1Cache_Controller object at 0x7fdf4c5b8e80>, <m5.objects.L1Cache_Controller.L1Cache_Controller object at 0x7fdf4c542e80>, <m5.objects.L1Cache_Controller.L1Cache_Controller object at 0x7fdf4c54ce80>, <m5.objects.L1Cache_Controller.L1Cache_Controller object at 0x7fdf4c555e80>, <m5.objects.L1Cache_Controller.L1Cache_Controller object at 0x7fdf4c55ee80>, <m5.objects.L1Cache_Controller.L1Cache_Controller object at 0x7fdf4c567e80>, <m5.objects.L1Cache_Controller.L1Cache_Controller object at 0x7fdf4c570e80>, <m5.objects.L1Cache_Controller.L1Cache_Controller object at 0x7fdf4c579e80>, <m5.objects.L1Cache_Controller.L1Cache_Controller object at 0x7fdf4c504e80>, <m5.objects.L1Cache_Controller.L1Cache_Controller object at 0x7fdf4c50ce80>, <m5.objects.L1Cache_Controller.L1Cache_Controller object at 0x7fdf4c516e80>, <m5.objects.L1Cache_Controller.L1Cache_Controller object at 0x7fdf4c51ee80>, <m5.objects.L1Cache_Controller.L1Cache_Controller object at 0x7fdf4c527e80>, <m5.objects.L1Cache_Controller.L1Cache_Controller object at 0x7fdf4c530e80>, <m5.objects.L1Cache_Controller.L1Cache_Controller object at 0x7fdf4c4bae80>, <m5.objects.L1Cache_Controller.L1Cache_Controller object at 0x7fdf4c4c3e80>, <m5.objects.L1Cache_Controller.L1Cache_Controller object at 0x7fdf4c4cde80>, <m5.objects.L1Cache_Controller.L1Cache_Controller object at 0x7fdf4c4d6e80>, <m5.objects.L1Cache_Controller.L1Cache_Controller object at 0x7fdf4c4dee80>, <m5.objects.L1Cache_Controller.L1Cache_Controller object at 0x7fdf4c4e7e80>, <m5.objects.L1Cache_Controller.L1Cache_Controller object at 0x7fdf4c4efe80>, <m5.objects.L1Cache_Controller.L1Cache_Controller object at 0x7fdf4c4f8e80>, <m5.objects.L1Cache_Controller.L1Cache_Controller object at 0x7fdf4c481e80>, <m5.objects.L1Cache_Controller.L1Cache_Controller object at 0x7fdf4c48ae80>]

l2_caches(64)=[<m5.objects.L2Cache_Controller.L2Cache_Controller object at 0x7fdf4c493b70>, <m5.objects.L2Cache_Controller.L2Cache_Controller object at 0x7fdf4c49b5f8>, <m5.objects.L2Cache_Controller.L2Cache_Controller object at 0x7fdf4c4a5080>, <m5.objects.L2Cache_Controller.L2Cache_Controller object at 0x7fdf4c4a5ac8>, <m5.objects.L2Cache_Controller.L2Cache_Controller object at 0x7fdf4c4ad550>, <m5.objects.L2Cache_Controller.L2Cache_Controller object at 0x7fdf4c4adf98>, <m5.objects.L2Cache_Controller.L2Cache_Controller object at 0x7fdf4c4b7a20>, <m5.objects.L2Cache_Controller.L2Cache_Controller object at 0x7fdf4c4404a8>, <m5.objects.L2Cache_Controller.L2Cache_Controller object at 0x7fdf4c440ef0>, <m5.objects.L2Cache_Controller.L2Cache_Controller object at 0x7fdf4c449978>, <m5.objects.L2Cache_Controller.L2Cache_Controller object at 0x7fdf4c451400>, <m5.objects.L2Cache_Controller.L2Cache_Controller object at 0x7fdf4c451e48>, <m5.objects.L2Cache_Controller.L2Cache_Controller object at 0x7fdf4c4598d0>, <m5.objects.L2Cache_Controller.L2Cache_Controller object at 0x7fdf4c463358>, <m5.objects.L2Cache_Controller.L2Cache_Controller object at 0x7fdf4c463da0>, <m5.objects.L2Cache_Controller.L2Cache_Controller object at 0x7fdf4c46c828>, <m5.objects.L2Cache_Controller.L2Cache_Controller object at 0x7fdf4c4752b0>, <m5.objects.L2Cache_Controller.L2Cache_Controller object at 0x7fdf4c475cf8>, <m5.objects.L2Cache_Controller.L2Cache_Controller object at 0x7fdf4c3fe780>, <m5.objects.L2Cache_Controller.L2Cache_Controller object at 0x7fdf4c407208>, <m5.objects.L2Cache_Controller.L2Cache_Controller object at 0x7fdf4c407c50>, <m5.objects.L2Cache_Controller.L2Cache_Controller object at 0x7fdf4c4116d8>, <m5.objects.L2Cache_Controller.L2Cache_Controller object at 0x7fdf4c41a160>, <m5.objects.L2Cache_Controller.L2Cache_Controller object at 0x7fdf4c41aba8>, <m5.objects.L2Cache_Controller.L2Cache_Controller object at 0x7fdf4c422630>, <m5.objects.L2Cache_Controller.L2Cache_Controller object at 0x7fdf4c42c0b8>, <m5.objects.L2Cache_Controller.L2Cache_Controller object at 0x7fdf4c42cb00>, <m5.objects.L2Cache_Controller.L2Cache_Controller object at 0x7fdf4c434588>, <m5.objects.L2Cache_Controller.L2Cache_Controller object at 0x7fdf4c434fd0>, <m5.objects.L2Cache_Controller.L2Cache_Controller object at 0x7fdf4c3bda58>, <m5.objects.L2Cache_Controller.L2Cache_Controller object at 0x7fdf4c3c74e0>, <m5.objects.L2Cache_Controller.L2Cache_Controller object at 0x7fdf4c3c7f28>, <m5.objects.L2Cache_Controller.L2Cache_Controller object at 0x7fdf4c3cf9b0>, <m5.objects.L2Cache_Controller.L2Cache_Controller object at 0x7fdf4c3d9438>, <m5.objects.L2Cache_Controller.L2Cache_Controller object at 0x7fdf4c3d9e80>, <m5.objects.L2Cache_Controller.L2Cache_Controller object at 0x7fdf4c3e2908>, <m5.objects.L2Cache_Controller.L2Cache_Controller object at 0x7fdf4c3e9390>, <m5.objects.L2Cache_Controller.L2Cache_Controller object at 0x7fdf4c3e9dd8>, <m5.objects.L2Cache_Controller.L2Cache_Controller object at 0x7fdf4c3f3860>, <m5.objects.L2Cache_Controller.L2Cache_Controller object at 0x7fdf4c37d2e8>, <m5.objects.L2Cache_Controller.L2Cache_Controller object at 0x7fdf4c37dd30>, <m5.objects.L2Cache_Controller.L2Cache_Controller object at 0x7fdf4c3867b8>, <m5.objects.L2Cache_Controller.L2Cache_Controller object at 0x7fdf4c390240>, <m5.objects.L2Cache_Controller.L2Cache_Controller object at 0x7fdf4c390c88>, <m5.objects.L2Cache_Controller.L2Cache_Controller object at 0x7fdf4c398710>, <m5.objects.L2Cache_Controller.L2Cache_Controller object at 0x7fdf4c3a1198>, <m5.objects.L2Cache_Controller.L2Cache_Controller object at 0x7fdf4c3a1be0>, <m5.objects.L2Cache_Controller.L2Cache_Controller object at 0x7fdf4c3aa668>, <m5.objects.L2Cache_Controller.L2Cache_Controller object at 0x7fdf4c3b20f0>, <m5.objects.L2Cache_Controller.L2Cache_Controller object at 0x7fdf4c3b2b38>, <m5.objects.L2Cache_Controller.L2Cache_Controller object at 0x7fdf4c33c5c0>, <m5.objects.L2Cache_Controller.L2Cache_Controller object at 0x7fdf4c343048>, <m5.objects.L2Cache_Controller.L2Cache_Controller object at 0x7fdf4c343a90>, <m5.objects.L2Cache_Controller.L2Cache_Controller object at 0x7fdf4c34c518>, <m5.objects.L2Cache_Controller.L2Cache_Controller object at 0x7fdf4c34cf60>, <m5.objects.L2Cache_Controller.L2Cache_Controller object at 0x7fdf4c3579e8>, <m5.objects.L2Cache_Controller.L2Cache_Controller object at 0x7fdf4c35e470>, <m5.objects.L2Cache_Controller.L2Cache_Controller object at 0x7fdf4c35eeb8>, <m5.objects.L2Cache_Controller.L2Cache_Controller object at 0x7fdf4c369940>, <m5.objects.L2Cache_Controller.L2Cache_Controller object at 0x7fdf4c3723c8>, <m5.objects.L2Cache_Controller.L2Cache_Controller object at 0x7fdf4c372e10>, <m5.objects.L2Cache_Controller.L2Cache_Controller object at 0x7fdf4c2fa898>, <m5.objects.L2Cache_Controller.L2Cache_Controller object at 0x7fdf4c303320>, <m5.objects.L2Cache_Controller.L2Cache_Controller object at 0x7fdf4c303d68>]

dirs(32)=[<m5.objects.Directory_Controller.Directory_Controller object at 0x7fdf4c30b6d8>, <m5.objects.Directory_Controller.Directory_Controller object at 0x7fdf4c30b908>, <m5.objects.Directory_Controller.Directory_Controller object at 0x7fdf4c30bb38>, <m5.objects.Directory_Controller.Directory_Controller object at 0x7fdf4c30bd68>, <m5.objects.Directory_Controller.Directory_Controller object at 0x7fdf4c30bf98>, <m5.objects.Directory_Controller.Directory_Controller object at 0x7fdf4c317208>, <m5.objects.Directory_Controller.Directory_Controller object at 0x7fdf4c317438>, <m5.objects.Directory_Controller.Directory_Controller object at 0x7fdf4c317668>, <m5.objects.Directory_Controller.Directory_Controller object at 0x7fdf4c317898>, <m5.objects.Directory_Controller.Directory_Controller object at 0x7fdf4c317ac8>, <m5.objects.Directory_Controller.Directory_Controller object at 0x7fdf4c317cf8>, <m5.objects.Directory_Controller.Directory_Controller object at 0x7fdf4c317f28>, <m5.objects.Directory_Controller.Directory_Controller object at 0x7fdf4c323198>, <m5.objects.Directory_Controller.Directory_Controller object at 0x7fdf4c3233c8>, <m5.objects.Directory_Controller.Directory_Controller object at 0x7fdf4c3235f8>, <m5.objects.Directory_Controller.Directory_Controller object at 0x7fdf4c323828>, <m5.objects.Directory_Controller.Directory_Controller object at 0x7fdf4c323a58>, <m5.objects.Directory_Controller.Directory_Controller object at 0x7fdf4c323c88>, <m5.objects.Directory_Controller.Directory_Controller object at 0x7fdf4c323eb8>, <m5.objects.Directory_Controller.Directory_Controller object at 0x7fdf4c32b128>, <m5.objects.Directory_Controller.Directory_Controller object at 0x7fdf4c32b358>, <m5.objects.Directory_Controller.Directory_Controller object at 0x7fdf4c32b588>, <m5.objects.Directory_Controller.Directory_Controller object at 0x7fdf4c32b7b8>, <m5.objects.Directory_Controller.Directory_Controller object at 0x7fdf4c32b9e8>, <m5.objects.Directory_Controller.Directory_Controller object at 0x7fdf4c32bc18>, <m5.objects.Directory_Controller.Directory_Controller object at 0x7fdf4c32be48>, <m5.objects.Directory_Controller.Directory_Controller object at 0x7fdf4c3390b8>, <m5.objects.Directory_Controller.Directory_Controller object at 0x7fdf4c3392e8>, <m5.objects.Directory_Controller.Directory_Controller object at 0x7fdf4c339518>, <m5.objects.Directory_Controller.Directory_Controller object at 0x7fdf4c339748>, <m5.objects.Directory_Controller.Directory_Controller object at 0x7fdf4c339978>, <m5.objects.Directory_Controller.Directory_Controller object at 0x7fdf4c339ba8>]

dmas(2)=[<m5.objects.DMA_Controller.DMA_Controller object at 0x7fdf4c29d588>, <m5.objects.DMA_Controller.DMA_Controller object at 0x7fdf4c29dba8>]

others(0)=[]

ingesting topologies_and_routing/nr_lists/dbl_bfly_x_noci_nndbt_picky.nrl w/ # rotuers = 84
warn: Memory mode will be changed to atomic_noncaching
warn: Physical memory size specified is 32GB which is greater than 3GB.  Twice the number of memory controllers would be created.
