ValueError: cannot convert 'my_20r_4p_25ll_topo_noci_picky_mclb_cohmem_prioritized_doubley_memoryGHz' to latency
Error setting param SrcClockDomain.clock to my_20r_4p_25ll_topo_noci_picky_mclb_cohmem_prioritized_doubley_memoryGHz


At:
  build/X86/python/m5/util/convert.py(144): convert
  build/X86/python/m5/util/convert.py(164): toNum
  build/X86/python/m5/util/convert.py(208): anyToLatency
  build/X86/python/m5/params.py(1527): __init__
  build/X86/python/m5/params.py(209): convert
  build/X86/python/m5/params.py(336): <listcomp>
  build/X86/python/m5/params.py(336): convert
  build/X86/python/m5/SimObject.py(824): __setattr__
  build/X86/python/m5/SimObject.py(720): __init__
  /home/min/a/green456/netsmith_icpp24/auto_top_gem5/configs/topologies/FS_NoCI_EscapeVirtualNetworks.py(128): makeTopology
  /home/min/a/green456/netsmith_icpp24/auto_top_gem5/configs/ruby/Ruby.py(224): create_system
  configs/netsmith/netsmith_parsec.py(218): build_test_system
  configs/netsmith/netsmith_parsec.py(518): <module>
  build/X86/python/m5/main.py(434): main
gem5 Simulator System.  https://www.gem5.org
gem5 is copyrighted software; use the --copyright option for details.

gem5 version 22.0.0.2
gem5 compiled Apr 28 2024 22:23:45
gem5 started Jun 14 2024 17:27:01
gem5 executing on mnemosyne.ecn.purdue.edu, pid 16956
command line: ./build/X86/gem5.fast -d ./parsec_results/noci_32GBxDDR4/1000warmup_1000simul/swaptions/my_20r_4p_25ll_topo_noci_picky_mclb_cohmem_prioritized_doubley_memory_hops_6vns/ configs/netsmith/netsmith_parsec.py -I 1000 --insts_after_warmup 1000 --benchmark_parsec swaptions -r 1 --checkpoint-dir ./parsec_noci_checkpoints/roi_checkpoint/system_5/swaptions --kernel ./parsec_disk_image/vmlinux-5.4.49 --disk-image ./parsec_disk_image/x86-parsec --router_map_file ./topologies_and_routing/topo_maps/noci/my_20r_4p_25ll_topo_noci.map --flat_vn_map_file topologies_and_routing/vn_maps/my_20r_4p_25ll_topo_noci_picky_mclb_cohmem_prioritized_doubley_memory_hops_6vns.vn --flat_nr_map_file topologies_and_routing/nr_lists/my_20r_4p_25ll_topo_noci_picky_mclb_cohmem_prioritized_doubley_memory.nrl --noi_clk my_20r_4p_25ll_topo_noci_picky_mclb_cohmem_prioritized_doubley_memoryGHz --vcs-per-vnet 10 --evn_n_deadlock_free 1 --evn_min_n_deadlock_free 6 --evn_deadlock_partition 4 --topology FS_NoCI_EscapeVirtualNetworks --noi_routers 20 --noc_clk 3.8GHz --sys-clock 3.8GHz --cpu-clock 3.8GHz --ruby-clock 3.8GHz --num-cpus 64 --mem_or_coh mem --num-dirs 32 --caches --num-l2caches 64 --l2_size 2MB --num_chiplets 4 --mem-size 32GB --ruby --network garnet --link-width-bits 64 --cpu-type X86O3CPU --routing-algorithm 2 --use_escape_vns --mem-type DDR4_2400_16x4

l1_caches(64)=[<m5.objects.L1Cache_Controller.L1Cache_Controller object at 0x7fa9e15afe80>, <m5.objects.L1Cache_Controller.L1Cache_Controller object at 0x7fa9e15b3ef0>, <m5.objects.L1Cache_Controller.L1Cache_Controller object at 0x7fa9e15c0ef0>, <m5.objects.L1Cache_Controller.L1Cache_Controller object at 0x7fa9e15caef0>, <m5.objects.L1Cache_Controller.L1Cache_Controller object at 0x7fa9e15d2ef0>, <m5.objects.L1Cache_Controller.L1Cache_Controller object at 0x7fa9e155bef0>, <m5.objects.L1Cache_Controller.L1Cache_Controller object at 0x7fa9e1564ef0>, <m5.objects.L1Cache_Controller.L1Cache_Controller object at 0x7fa9e156eef0>, <m5.objects.L1Cache_Controller.L1Cache_Controller object at 0x7fa9e1577ef0>, <m5.objects.L1Cache_Controller.L1Cache_Controller object at 0x7fa9e157eef0>, <m5.objects.L1Cache_Controller.L1Cache_Controller object at 0x7fa9e1589ef0>, <m5.objects.L1Cache_Controller.L1Cache_Controller object at 0x7fa9e1591ef0>, <m5.objects.L1Cache_Controller.L1Cache_Controller object at 0x7fa9e151bef0>, <m5.objects.L1Cache_Controller.L1Cache_Controller object at 0x7fa9e1523ef0>, <m5.objects.L1Cache_Controller.L1Cache_Controller object at 0x7fa9e152def0>, <m5.objects.L1Cache_Controller.L1Cache_Controller object at 0x7fa9e1536ef0>, <m5.objects.L1Cache_Controller.L1Cache_Controller object at 0x7fa9e153fef0>, <m5.objects.L1Cache_Controller.L1Cache_Controller object at 0x7fa9e1548ef0>, <m5.objects.L1Cache_Controller.L1Cache_Controller object at 0x7fa9e1550ef0>, <m5.objects.L1Cache_Controller.L1Cache_Controller object at 0x7fa9e14dbef0>, <m5.objects.L1Cache_Controller.L1Cache_Controller object at 0x7fa9e14e3ef0>, <m5.objects.L1Cache_Controller.L1Cache_Controller object at 0x7fa9e14eeef0>, <m5.objects.L1Cache_Controller.L1Cache_Controller object at 0x7fa9e14f6ef0>, <m5.objects.L1Cache_Controller.L1Cache_Controller object at 0x7fa9e1500ef0>, <m5.objects.L1Cache_Controller.L1Cache_Controller object at 0x7fa9e1508ef0>, <m5.objects.L1Cache_Controller.L1Cache_Controller object at 0x7fa9e1512ef0>, <m5.objects.L1Cache_Controller.L1Cache_Controller object at 0x7fa9e149aef0>, <m5.objects.L1Cache_Controller.L1Cache_Controller object at 0x7fa9e14a2ef0>, <m5.objects.L1Cache_Controller.L1Cache_Controller object at 0x7fa9e14acef0>, <m5.objects.L1Cache_Controller.L1Cache_Controller object at 0x7fa9e14b5ef0>, <m5.objects.L1Cache_Controller.L1Cache_Controller object at 0x7fa9e14bfef0>, <m5.objects.L1Cache_Controller.L1Cache_Controller object at 0x7fa9e14c8ef0>, <m5.objects.L1Cache_Controller.L1Cache_Controller object at 0x7fa9e14d2ef0>, <m5.objects.L1Cache_Controller.L1Cache_Controller object at 0x7fa9e145aef0>, <m5.objects.L1Cache_Controller.L1Cache_Controller object at 0x7fa9e1462ef0>, <m5.objects.L1Cache_Controller.L1Cache_Controller object at 0x7fa9e146cef0>, <m5.objects.L1Cache_Controller.L1Cache_Controller object at 0x7fa9e1475ef0>, <m5.objects.L1Cache_Controller.L1Cache_Controller object at 0x7fa9e147eef0>, <m5.objects.L1Cache_Controller.L1Cache_Controller object at 0x7fa9e1486ef0>, <m5.objects.L1Cache_Controller.L1Cache_Controller object at 0x7fa9e1490ef0>, <m5.objects.L1Cache_Controller.L1Cache_Controller object at 0x7fa9e1498ef0>, <m5.objects.L1Cache_Controller.L1Cache_Controller object at 0x7fa9e1422ef0>, <m5.objects.L1Cache_Controller.L1Cache_Controller object at 0x7fa9e142aef0>, <m5.objects.L1Cache_Controller.L1Cache_Controller object at 0x7fa9e1435ef0>, <m5.objects.L1Cache_Controller.L1Cache_Controller object at 0x7fa9e143eef0>, <m5.objects.L1Cache_Controller.L1Cache_Controller object at 0x7fa9e1447ef0>, <m5.objects.L1Cache_Controller.L1Cache_Controller object at 0x7fa9e1450ef0>, <m5.objects.L1Cache_Controller.L1Cache_Controller object at 0x7fa9e1459ef0>, <m5.objects.L1Cache_Controller.L1Cache_Controller object at 0x7fa9e13e3ef0>, <m5.objects.L1Cache_Controller.L1Cache_Controller object at 0x7fa9e13ebef0>, <m5.objects.L1Cache_Controller.L1Cache_Controller object at 0x7fa9e13f6ef0>, <m5.objects.L1Cache_Controller.L1Cache_Controller object at 0x7fa9e13feef0>, <m5.objects.L1Cache_Controller.L1Cache_Controller object at 0x7fa9e1407ef0>, <m5.objects.L1Cache_Controller.L1Cache_Controller object at 0x7fa9e1410ef0>, <m5.objects.L1Cache_Controller.L1Cache_Controller object at 0x7fa9e1419ef0>, <m5.objects.L1Cache_Controller.L1Cache_Controller object at 0x7fa9e13a3ef0>, <m5.objects.L1Cache_Controller.L1Cache_Controller object at 0x7fa9e13acef0>, <m5.objects.L1Cache_Controller.L1Cache_Controller object at 0x7fa9e13b6ef0>, <m5.objects.L1Cache_Controller.L1Cache_Controller object at 0x7fa9e13bfef0>, <m5.objects.L1Cache_Controller.L1Cache_Controller object at 0x7fa9e13c5ef0>, <m5.objects.L1Cache_Controller.L1Cache_Controller object at 0x7fa9e13cfef0>, <m5.objects.L1Cache_Controller.L1Cache_Controller object at 0x7fa9e13d8ef0>, <m5.objects.L1Cache_Controller.L1Cache_Controller object at 0x7fa9e1361ef0>, <m5.objects.L1Cache_Controller.L1Cache_Controller object at 0x7fa9e136aef0>]

l2_caches(64)=[<m5.objects.L2Cache_Controller.L2Cache_Controller object at 0x7fa9e1373be0>, <m5.objects.L2Cache_Controller.L2Cache_Controller object at 0x7fa9e137b668>, <m5.objects.L2Cache_Controller.L2Cache_Controller object at 0x7fa9e13850f0>, <m5.objects.L2Cache_Controller.L2Cache_Controller object at 0x7fa9e1385b38>, <m5.objects.L2Cache_Controller.L2Cache_Controller object at 0x7fa9e138d5c0>, <m5.objects.L2Cache_Controller.L2Cache_Controller object at 0x7fa9e1397048>, <m5.objects.L2Cache_Controller.L2Cache_Controller object at 0x7fa9e1397a90>, <m5.objects.L2Cache_Controller.L2Cache_Controller object at 0x7fa9e1320518>, <m5.objects.L2Cache_Controller.L2Cache_Controller object at 0x7fa9e1320f60>, <m5.objects.L2Cache_Controller.L2Cache_Controller object at 0x7fa9e13299e8>, <m5.objects.L2Cache_Controller.L2Cache_Controller object at 0x7fa9e1331470>, <m5.objects.L2Cache_Controller.L2Cache_Controller object at 0x7fa9e1331eb8>, <m5.objects.L2Cache_Controller.L2Cache_Controller object at 0x7fa9e133a940>, <m5.objects.L2Cache_Controller.L2Cache_Controller object at 0x7fa9e13433c8>, <m5.objects.L2Cache_Controller.L2Cache_Controller object at 0x7fa9e1343e10>, <m5.objects.L2Cache_Controller.L2Cache_Controller object at 0x7fa9e134c898>, <m5.objects.L2Cache_Controller.L2Cache_Controller object at 0x7fa9e1354320>, <m5.objects.L2Cache_Controller.L2Cache_Controller object at 0x7fa9e1354d68>, <m5.objects.L2Cache_Controller.L2Cache_Controller object at 0x7fa9e12de7f0>, <m5.objects.L2Cache_Controller.L2Cache_Controller object at 0x7fa9e12e7278>, <m5.objects.L2Cache_Controller.L2Cache_Controller object at 0x7fa9e12e7cc0>, <m5.objects.L2Cache_Controller.L2Cache_Controller object at 0x7fa9e12f1748>, <m5.objects.L2Cache_Controller.L2Cache_Controller object at 0x7fa9e12fa1d0>, <m5.objects.L2Cache_Controller.L2Cache_Controller object at 0x7fa9e12fac18>, <m5.objects.L2Cache_Controller.L2Cache_Controller object at 0x7fa9e13026a0>, <m5.objects.L2Cache_Controller.L2Cache_Controller object at 0x7fa9e130c128>, <m5.objects.L2Cache_Controller.L2Cache_Controller object at 0x7fa9e130cb70>, <m5.objects.L2Cache_Controller.L2Cache_Controller object at 0x7fa9e13145f8>, <m5.objects.L2Cache_Controller.L2Cache_Controller object at 0x7fa9e129e080>, <m5.objects.L2Cache_Controller.L2Cache_Controller object at 0x7fa9e129eac8>, <m5.objects.L2Cache_Controller.L2Cache_Controller object at 0x7fa9e12a7550>, <m5.objects.L2Cache_Controller.L2Cache_Controller object at 0x7fa9e12a7f98>, <m5.objects.L2Cache_Controller.L2Cache_Controller object at 0x7fa9e12b0a20>, <m5.objects.L2Cache_Controller.L2Cache_Controller object at 0x7fa9e12b94a8>, <m5.objects.L2Cache_Controller.L2Cache_Controller object at 0x7fa9e12b9ef0>, <m5.objects.L2Cache_Controller.L2Cache_Controller object at 0x7fa9e12c2978>, <m5.objects.L2Cache_Controller.L2Cache_Controller object at 0x7fa9e12c9400>, <m5.objects.L2Cache_Controller.L2Cache_Controller object at 0x7fa9e12c9e48>, <m5.objects.L2Cache_Controller.L2Cache_Controller object at 0x7fa9e12d38d0>, <m5.objects.L2Cache_Controller.L2Cache_Controller object at 0x7fa9e125b358>, <m5.objects.L2Cache_Controller.L2Cache_Controller object at 0x7fa9e125bda0>, <m5.objects.L2Cache_Controller.L2Cache_Controller object at 0x7fa9e1264828>, <m5.objects.L2Cache_Controller.L2Cache_Controller object at 0x7fa9e12702b0>, <m5.objects.L2Cache_Controller.L2Cache_Controller object at 0x7fa9e1270cf8>, <m5.objects.L2Cache_Controller.L2Cache_Controller object at 0x7fa9e1277780>, <m5.objects.L2Cache_Controller.L2Cache_Controller object at 0x7fa9e1281208>, <m5.objects.L2Cache_Controller.L2Cache_Controller object at 0x7fa9e1281c50>, <m5.objects.L2Cache_Controller.L2Cache_Controller object at 0x7fa9e12896d8>, <m5.objects.L2Cache_Controller.L2Cache_Controller object at 0x7fa9e1292160>, <m5.objects.L2Cache_Controller.L2Cache_Controller object at 0x7fa9e1292ba8>, <m5.objects.L2Cache_Controller.L2Cache_Controller object at 0x7fa9e121b630>, <m5.objects.L2Cache_Controller.L2Cache_Controller object at 0x7fa9e12230b8>, <m5.objects.L2Cache_Controller.L2Cache_Controller object at 0x7fa9e1223b00>, <m5.objects.L2Cache_Controller.L2Cache_Controller object at 0x7fa9e122c588>, <m5.objects.L2Cache_Controller.L2Cache_Controller object at 0x7fa9e122cfd0>, <m5.objects.L2Cache_Controller.L2Cache_Controller object at 0x7fa9e1236a58>, <m5.objects.L2Cache_Controller.L2Cache_Controller object at 0x7fa9e123e4e0>, <m5.objects.L2Cache_Controller.L2Cache_Controller object at 0x7fa9e123ef28>, <m5.objects.L2Cache_Controller.L2Cache_Controller object at 0x7fa9e12489b0>, <m5.objects.L2Cache_Controller.L2Cache_Controller object at 0x7fa9e1251438>, <m5.objects.L2Cache_Controller.L2Cache_Controller object at 0x7fa9e1251e80>, <m5.objects.L2Cache_Controller.L2Cache_Controller object at 0x7fa9e11db908>, <m5.objects.L2Cache_Controller.L2Cache_Controller object at 0x7fa9e11e3390>, <m5.objects.L2Cache_Controller.L2Cache_Controller object at 0x7fa9e11e3dd8>]

dirs(32)=[<m5.objects.Directory_Controller.Directory_Controller object at 0x7fa9e11eb748>, <m5.objects.Directory_Controller.Directory_Controller object at 0x7fa9e11eb978>, <m5.objects.Directory_Controller.Directory_Controller object at 0x7fa9e11ebba8>, <m5.objects.Directory_Controller.Directory_Controller object at 0x7fa9e11ebdd8>, <m5.objects.Directory_Controller.Directory_Controller object at 0x7fa9e11f7048>, <m5.objects.Directory_Controller.Directory_Controller object at 0x7fa9e11f7278>, <m5.objects.Directory_Controller.Directory_Controller object at 0x7fa9e11f74a8>, <m5.objects.Directory_Controller.Directory_Controller object at 0x7fa9e11f76d8>, <m5.objects.Directory_Controller.Directory_Controller object at 0x7fa9e11f7908>, <m5.objects.Directory_Controller.Directory_Controller object at 0x7fa9e11f7b38>, <m5.objects.Directory_Controller.Directory_Controller object at 0x7fa9e11f7d68>, <m5.objects.Directory_Controller.Directory_Controller object at 0x7fa9e11f7f98>, <m5.objects.Directory_Controller.Directory_Controller object at 0x7fa9e1201208>, <m5.objects.Directory_Controller.Directory_Controller object at 0x7fa9e1201438>, <m5.objects.Directory_Controller.Directory_Controller object at 0x7fa9e1201668>, <m5.objects.Directory_Controller.Directory_Controller object at 0x7fa9e1201898>, <m5.objects.Directory_Controller.Directory_Controller object at 0x7fa9e1201ac8>, <m5.objects.Directory_Controller.Directory_Controller object at 0x7fa9e1201cf8>, <m5.objects.Directory_Controller.Directory_Controller object at 0x7fa9e1201f28>, <m5.objects.Directory_Controller.Directory_Controller object at 0x7fa9e120e198>, <m5.objects.Directory_Controller.Directory_Controller object at 0x7fa9e120e3c8>, <m5.objects.Directory_Controller.Directory_Controller object at 0x7fa9e120e5f8>, <m5.objects.Directory_Controller.Directory_Controller object at 0x7fa9e120e828>, <m5.objects.Directory_Controller.Directory_Controller object at 0x7fa9e120ea58>, <m5.objects.Directory_Controller.Directory_Controller object at 0x7fa9e120ec88>, <m5.objects.Directory_Controller.Directory_Controller object at 0x7fa9e120eeb8>, <m5.objects.Directory_Controller.Directory_Controller object at 0x7fa9e1219128>, <m5.objects.Directory_Controller.Directory_Controller object at 0x7fa9e1219358>, <m5.objects.Directory_Controller.Directory_Controller object at 0x7fa9e1219588>, <m5.objects.Directory_Controller.Directory_Controller object at 0x7fa9e12197b8>, <m5.objects.Directory_Controller.Directory_Controller object at 0x7fa9e12199e8>, <m5.objects.Directory_Controller.Directory_Controller object at 0x7fa9e1219c18>]

dmas(2)=[<m5.objects.DMA_Controller.DMA_Controller object at 0x7fa9e117c5f8>, <m5.objects.DMA_Controller.DMA_Controller object at 0x7fa9e117cc18>]

others(0)=[]

ingesting topologies_and_routing/nr_lists/my_20r_4p_25ll_topo_noci_picky_mclb_cohmem_prioritized_doubley_memory.nrl w/ # rotuers = 84
ingesting topologies_and_routing/vn_maps/my_20r_4p_25ll_topo_noci_picky_mclb_cohmem_prioritized_doubley_memory_hops_6vns.vn
warn: Memory mode will be changed to atomic_noncaching
warn: Physical memory size specified is 32GB which is greater than 3GB.  Twice the number of memory controllers would be created.
