FileNotFoundError: [Errno 2] No such file or directory: 'topologies_and_routing/nr_lists/dbl_bfly_x_noci_nndbt_picky.nrl'

At:
  /home/min/a/green456/netsmith_icpp24/auto_top_gem5/configs/topologies/FS_NoCI_EscapeVirtualNetworks.py(570): ingest_flat_map_list
  /home/min/a/green456/netsmith_icpp24/auto_top_gem5/configs/topologies/FS_NoCI_EscapeVirtualNetworks.py(108): makeTopology
  /home/min/a/green456/netsmith_icpp24/auto_top_gem5/configs/ruby/Ruby.py(224): create_system
  configs/netsmith/netsmith_parsec.py(218): build_test_system
  configs/netsmith/netsmith_parsec.py(518): <module>
  build/X86/python/m5/main.py(434): main
gem5 Simulator System.  https://www.gem5.org
gem5 is copyrighted software; use the --copyright option for details.

gem5 version 22.0.0.2
gem5 compiled Apr 28 2024 22:23:45
gem5 started Jun 14 2024 15:31:08
gem5 executing on mnemosyne.ecn.purdue.edu, pid 24947
command line: ./build/X86/gem5.fast -d ./parsec_results/noci_32GBxDDR4_2envs_38GHz_2MBl2_allthreads_64lwidth_sameflowpriority_lwbufadj/1000warmup_1000simul/x264/dbl_bfly_x_noci_nndbt_picky_none/ configs/netsmith/netsmith_parsec.py -I 1000 --insts_after_warmup 1000 --benchmark_parsec x264 -r 1 --checkpoint-dir ./parsec_noci_checkpoints/roi_checkpoint/system_5/x264 --router_map_file ./topologies_and_routing/topo_maps/noci/dbl_bfly_x_noci.map --flat_vn_map_file topologies_and_routing/vn_maps/dbl_bfly_x_noci_nndbt_picky_none_2vns.vn --flat_nr_map_file topologies_and_routing/nr_lists/dbl_bfly_x_noci_nndbt_picky.nrl --topology FS_NoCI_EscapeVirtualNetworks --noi_routers 20 --noc_clk 3.8GHz --sys-clock 3.8GHz --cpu-clock 3.8GHz --ruby-clock 3.8GHz --noi_clk 2.7GHz --num-cpus 64 --mem_or_coh mem --num-dirs 32 --caches --num-l2caches 64 --l2_size 2MB --num_chiplets 4 --mem-size 32GB --ruby --network garnet --link-width-bits 64 --kernel /home/yara/mithuna2/green456/netsmith_autotop/auto_top_gem5/parsec_disk_image/vmlinux-5.4.49 --disk-image /home/yara/mithuna2/green456/netsmith_autotop/auto_top_gem5/parsec_disk_image/x86-parsec --cpu-type X86O3CPU --routing-algorithm 2 --use_escape_vns --vcs-per-vnet 10 --evn_n_deadlock_free 1 --evn_min_n_deadlock_free 2 --evn_deadlock_partition 8 --mem-type DDR4_2400_16x4

l1_caches(64)=[<m5.objects.L1Cache_Controller.L1Cache_Controller object at 0x7f713b798eb8>, <m5.objects.L1Cache_Controller.L1Cache_Controller object at 0x7f713b79cf28>, <m5.objects.L1Cache_Controller.L1Cache_Controller object at 0x7f713b7a8f28>, <m5.objects.L1Cache_Controller.L1Cache_Controller object at 0x7f713b7b1f28>, <m5.objects.L1Cache_Controller.L1Cache_Controller object at 0x7f713b7baf28>, <m5.objects.L1Cache_Controller.L1Cache_Controller object at 0x7f713b743f28>, <m5.objects.L1Cache_Controller.L1Cache_Controller object at 0x7f713b74df28>, <m5.objects.L1Cache_Controller.L1Cache_Controller object at 0x7f713b756f28>, <m5.objects.L1Cache_Controller.L1Cache_Controller object at 0x7f713b75ff28>, <m5.objects.L1Cache_Controller.L1Cache_Controller object at 0x7f713b767f28>, <m5.objects.L1Cache_Controller.L1Cache_Controller object at 0x7f713b771f28>, <m5.objects.L1Cache_Controller.L1Cache_Controller object at 0x7f713b779f28>, <m5.objects.L1Cache_Controller.L1Cache_Controller object at 0x7f713b703f28>, <m5.objects.L1Cache_Controller.L1Cache_Controller object at 0x7f713b70bf28>, <m5.objects.L1Cache_Controller.L1Cache_Controller object at 0x7f713b714f28>, <m5.objects.L1Cache_Controller.L1Cache_Controller object at 0x7f713b71ef28>, <m5.objects.L1Cache_Controller.L1Cache_Controller object at 0x7f713b727f28>, <m5.objects.L1Cache_Controller.L1Cache_Controller object at 0x7f713b730f28>, <m5.objects.L1Cache_Controller.L1Cache_Controller object at 0x7f713b739f28>, <m5.objects.L1Cache_Controller.L1Cache_Controller object at 0x7f713b6c3f28>, <m5.objects.L1Cache_Controller.L1Cache_Controller object at 0x7f713b6cbf28>, <m5.objects.L1Cache_Controller.L1Cache_Controller object at 0x7f713b6d5f28>, <m5.objects.L1Cache_Controller.L1Cache_Controller object at 0x7f713b6ddf28>, <m5.objects.L1Cache_Controller.L1Cache_Controller object at 0x7f713b6e7f28>, <m5.objects.L1Cache_Controller.L1Cache_Controller object at 0x7f713b6f0f28>, <m5.objects.L1Cache_Controller.L1Cache_Controller object at 0x7f713b6f9f28>, <m5.objects.L1Cache_Controller.L1Cache_Controller object at 0x7f713b682f28>, <m5.objects.L1Cache_Controller.L1Cache_Controller object at 0x7f713b68af28>, <m5.objects.L1Cache_Controller.L1Cache_Controller object at 0x7f713b694f28>, <m5.objects.L1Cache_Controller.L1Cache_Controller object at 0x7f713b69df28>, <m5.objects.L1Cache_Controller.L1Cache_Controller object at 0x7f713b6a8f28>, <m5.objects.L1Cache_Controller.L1Cache_Controller object at 0x7f713b6b0f28>, <m5.objects.L1Cache_Controller.L1Cache_Controller object at 0x7f713b6baf28>, <m5.objects.L1Cache_Controller.L1Cache_Controller object at 0x7f713b642f28>, <m5.objects.L1Cache_Controller.L1Cache_Controller object at 0x7f713b64bf28>, <m5.objects.L1Cache_Controller.L1Cache_Controller object at 0x7f713b654f28>, <m5.objects.L1Cache_Controller.L1Cache_Controller object at 0x7f713b65cf28>, <m5.objects.L1Cache_Controller.L1Cache_Controller object at 0x7f713b666f28>, <m5.objects.L1Cache_Controller.L1Cache_Controller object at 0x7f713b66ef28>, <m5.objects.L1Cache_Controller.L1Cache_Controller object at 0x7f713b678f28>, <m5.objects.L1Cache_Controller.L1Cache_Controller object at 0x7f713b680f28>, <m5.objects.L1Cache_Controller.L1Cache_Controller object at 0x7f713b60af28>, <m5.objects.L1Cache_Controller.L1Cache_Controller object at 0x7f713b613f28>, <m5.objects.L1Cache_Controller.L1Cache_Controller object at 0x7f713b61df28>, <m5.objects.L1Cache_Controller.L1Cache_Controller object at 0x7f713b626f28>, <m5.objects.L1Cache_Controller.L1Cache_Controller object at 0x7f713b62ff28>, <m5.objects.L1Cache_Controller.L1Cache_Controller object at 0x7f713b638f28>, <m5.objects.L1Cache_Controller.L1Cache_Controller object at 0x7f713b640f28>, <m5.objects.L1Cache_Controller.L1Cache_Controller object at 0x7f713b5ccf28>, <m5.objects.L1Cache_Controller.L1Cache_Controller object at 0x7f713b5d4f28>, <m5.objects.L1Cache_Controller.L1Cache_Controller object at 0x7f713b5def28>, <m5.objects.L1Cache_Controller.L1Cache_Controller object at 0x7f713b5e6f28>, <m5.objects.L1Cache_Controller.L1Cache_Controller object at 0x7f713b5eff28>, <m5.objects.L1Cache_Controller.L1Cache_Controller object at 0x7f713b5f8f28>, <m5.objects.L1Cache_Controller.L1Cache_Controller object at 0x7f713b582f28>, <m5.objects.L1Cache_Controller.L1Cache_Controller object at 0x7f713b58bf28>, <m5.objects.L1Cache_Controller.L1Cache_Controller object at 0x7f713b594f28>, <m5.objects.L1Cache_Controller.L1Cache_Controller object at 0x7f713b59ef28>, <m5.objects.L1Cache_Controller.L1Cache_Controller object at 0x7f713b5a6f28>, <m5.objects.L1Cache_Controller.L1Cache_Controller object at 0x7f713b5aff28>, <m5.objects.L1Cache_Controller.L1Cache_Controller object at 0x7f713b5b7f28>, <m5.objects.L1Cache_Controller.L1Cache_Controller object at 0x7f713b5c0f28>, <m5.objects.L1Cache_Controller.L1Cache_Controller object at 0x7f713b549f28>, <m5.objects.L1Cache_Controller.L1Cache_Controller object at 0x7f713b552f28>]

l2_caches(64)=[<m5.objects.L2Cache_Controller.L2Cache_Controller object at 0x7f713b55bc18>, <m5.objects.L2Cache_Controller.L2Cache_Controller object at 0x7f713b5646a0>, <m5.objects.L2Cache_Controller.L2Cache_Controller object at 0x7f713b56e128>, <m5.objects.L2Cache_Controller.L2Cache_Controller object at 0x7f713b56eb70>, <m5.objects.L2Cache_Controller.L2Cache_Controller object at 0x7f713b5765f8>, <m5.objects.L2Cache_Controller.L2Cache_Controller object at 0x7f713b580080>, <m5.objects.L2Cache_Controller.L2Cache_Controller object at 0x7f713b580ac8>, <m5.objects.L2Cache_Controller.L2Cache_Controller object at 0x7f713b508550>, <m5.objects.L2Cache_Controller.L2Cache_Controller object at 0x7f713b508f98>, <m5.objects.L2Cache_Controller.L2Cache_Controller object at 0x7f713b511a20>, <m5.objects.L2Cache_Controller.L2Cache_Controller object at 0x7f713b51a4a8>, <m5.objects.L2Cache_Controller.L2Cache_Controller object at 0x7f713b51aef0>, <m5.objects.L2Cache_Controller.L2Cache_Controller object at 0x7f713b522978>, <m5.objects.L2Cache_Controller.L2Cache_Controller object at 0x7f713b52c400>, <m5.objects.L2Cache_Controller.L2Cache_Controller object at 0x7f713b52ce48>, <m5.objects.L2Cache_Controller.L2Cache_Controller object at 0x7f713b5358d0>, <m5.objects.L2Cache_Controller.L2Cache_Controller object at 0x7f713b53d358>, <m5.objects.L2Cache_Controller.L2Cache_Controller object at 0x7f713b53dda0>, <m5.objects.L2Cache_Controller.L2Cache_Controller object at 0x7f713b4c7828>, <m5.objects.L2Cache_Controller.L2Cache_Controller object at 0x7f713b4d02b0>, <m5.objects.L2Cache_Controller.L2Cache_Controller object at 0x7f713b4d0cf8>, <m5.objects.L2Cache_Controller.L2Cache_Controller object at 0x7f713b4d9780>, <m5.objects.L2Cache_Controller.L2Cache_Controller object at 0x7f713b4e3208>, <m5.objects.L2Cache_Controller.L2Cache_Controller object at 0x7f713b4e3c50>, <m5.objects.L2Cache_Controller.L2Cache_Controller object at 0x7f713b4eb6d8>, <m5.objects.L2Cache_Controller.L2Cache_Controller object at 0x7f713b4f5160>, <m5.objects.L2Cache_Controller.L2Cache_Controller object at 0x7f713b4f5ba8>, <m5.objects.L2Cache_Controller.L2Cache_Controller object at 0x7f713b4fd630>, <m5.objects.L2Cache_Controller.L2Cache_Controller object at 0x7f713b4860b8>, <m5.objects.L2Cache_Controller.L2Cache_Controller object at 0x7f713b486b00>, <m5.objects.L2Cache_Controller.L2Cache_Controller object at 0x7f713b490588>, <m5.objects.L2Cache_Controller.L2Cache_Controller object at 0x7f713b490fd0>, <m5.objects.L2Cache_Controller.L2Cache_Controller object at 0x7f713b498a58>, <m5.objects.L2Cache_Controller.L2Cache_Controller object at 0x7f713b4a24e0>, <m5.objects.L2Cache_Controller.L2Cache_Controller object at 0x7f713b4a2f28>, <m5.objects.L2Cache_Controller.L2Cache_Controller object at 0x7f713b4ab9b0>, <m5.objects.L2Cache_Controller.L2Cache_Controller object at 0x7f713b4b1438>, <m5.objects.L2Cache_Controller.L2Cache_Controller object at 0x7f713b4b1e80>, <m5.objects.L2Cache_Controller.L2Cache_Controller object at 0x7f713b4bc908>, <m5.objects.L2Cache_Controller.L2Cache_Controller object at 0x7f713b444390>, <m5.objects.L2Cache_Controller.L2Cache_Controller object at 0x7f713b444dd8>, <m5.objects.L2Cache_Controller.L2Cache_Controller object at 0x7f713b44f860>, <m5.objects.L2Cache_Controller.L2Cache_Controller object at 0x7f713b4582e8>, <m5.objects.L2Cache_Controller.L2Cache_Controller object at 0x7f713b458d30>, <m5.objects.L2Cache_Controller.L2Cache_Controller object at 0x7f713b45f7b8>, <m5.objects.L2Cache_Controller.L2Cache_Controller object at 0x7f713b469240>, <m5.objects.L2Cache_Controller.L2Cache_Controller object at 0x7f713b469c88>, <m5.objects.L2Cache_Controller.L2Cache_Controller object at 0x7f713b472710>, <m5.objects.L2Cache_Controller.L2Cache_Controller object at 0x7f713b47a198>, <m5.objects.L2Cache_Controller.L2Cache_Controller object at 0x7f713b47abe0>, <m5.objects.L2Cache_Controller.L2Cache_Controller object at 0x7f713b404668>, <m5.objects.L2Cache_Controller.L2Cache_Controller object at 0x7f713b40c0f0>, <m5.objects.L2Cache_Controller.L2Cache_Controller object at 0x7f713b40cb38>, <m5.objects.L2Cache_Controller.L2Cache_Controller object at 0x7f713b4155c0>, <m5.objects.L2Cache_Controller.L2Cache_Controller object at 0x7f713b41f048>, <m5.objects.L2Cache_Controller.L2Cache_Controller object at 0x7f713b41fa90>, <m5.objects.L2Cache_Controller.L2Cache_Controller object at 0x7f713b427518>, <m5.objects.L2Cache_Controller.L2Cache_Controller object at 0x7f713b427f60>, <m5.objects.L2Cache_Controller.L2Cache_Controller object at 0x7f713b4319e8>, <m5.objects.L2Cache_Controller.L2Cache_Controller object at 0x7f713b43a470>, <m5.objects.L2Cache_Controller.L2Cache_Controller object at 0x7f713b43aeb8>, <m5.objects.L2Cache_Controller.L2Cache_Controller object at 0x7f713b3c3940>, <m5.objects.L2Cache_Controller.L2Cache_Controller object at 0x7f713b3cc3c8>, <m5.objects.L2Cache_Controller.L2Cache_Controller object at 0x7f713b3cce10>]

dirs(32)=[<m5.objects.Directory_Controller.Directory_Controller object at 0x7f713b3d4780>, <m5.objects.Directory_Controller.Directory_Controller object at 0x7f713b3d49b0>, <m5.objects.Directory_Controller.Directory_Controller object at 0x7f713b3d4be0>, <m5.objects.Directory_Controller.Directory_Controller object at 0x7f713b3d4e10>, <m5.objects.Directory_Controller.Directory_Controller object at 0x7f713b3e0080>, <m5.objects.Directory_Controller.Directory_Controller object at 0x7f713b3e02b0>, <m5.objects.Directory_Controller.Directory_Controller object at 0x7f713b3e04e0>, <m5.objects.Directory_Controller.Directory_Controller object at 0x7f713b3e0710>, <m5.objects.Directory_Controller.Directory_Controller object at 0x7f713b3e0940>, <m5.objects.Directory_Controller.Directory_Controller object at 0x7f713b3e0b70>, <m5.objects.Directory_Controller.Directory_Controller object at 0x7f713b3e0da0>, <m5.objects.Directory_Controller.Directory_Controller object at 0x7f713b3e0fd0>, <m5.objects.Directory_Controller.Directory_Controller object at 0x7f713b3ea240>, <m5.objects.Directory_Controller.Directory_Controller object at 0x7f713b3ea470>, <m5.objects.Directory_Controller.Directory_Controller object at 0x7f713b3ea6a0>, <m5.objects.Directory_Controller.Directory_Controller object at 0x7f713b3ea8d0>, <m5.objects.Directory_Controller.Directory_Controller object at 0x7f713b3eab00>, <m5.objects.Directory_Controller.Directory_Controller object at 0x7f713b3ead30>, <m5.objects.Directory_Controller.Directory_Controller object at 0x7f713b3eaf60>, <m5.objects.Directory_Controller.Directory_Controller object at 0x7f713b3f61d0>, <m5.objects.Directory_Controller.Directory_Controller object at 0x7f713b3f6400>, <m5.objects.Directory_Controller.Directory_Controller object at 0x7f713b3f6630>, <m5.objects.Directory_Controller.Directory_Controller object at 0x7f713b3f6860>, <m5.objects.Directory_Controller.Directory_Controller object at 0x7f713b3f6a90>, <m5.objects.Directory_Controller.Directory_Controller object at 0x7f713b3f6cc0>, <m5.objects.Directory_Controller.Directory_Controller object at 0x7f713b3f6ef0>, <m5.objects.Directory_Controller.Directory_Controller object at 0x7f713b382160>, <m5.objects.Directory_Controller.Directory_Controller object at 0x7f713b382390>, <m5.objects.Directory_Controller.Directory_Controller object at 0x7f713b3825c0>, <m5.objects.Directory_Controller.Directory_Controller object at 0x7f713b3827f0>, <m5.objects.Directory_Controller.Directory_Controller object at 0x7f713b382a20>, <m5.objects.Directory_Controller.Directory_Controller object at 0x7f713b382c50>]

dmas(2)=[<m5.objects.DMA_Controller.DMA_Controller object at 0x7f713b367630>, <m5.objects.DMA_Controller.DMA_Controller object at 0x7f713b367c50>]

others(0)=[]

ingesting topologies_and_routing/nr_lists/dbl_bfly_x_noci_nndbt_picky.nrl w/ # rotuers = 84
warn: Memory mode will be changed to atomic_noncaching
warn: Physical memory size specified is 32GB which is greater than 3GB.  Twice the number of memory controllers would be created.
