ValueError: cannot convert 'my_20r_4p_25ll_topo_noci_picky_mclb_cohmem_prioritized_doubley_memoryGHz' to latency
Error setting param SrcClockDomain.clock to my_20r_4p_25ll_topo_noci_picky_mclb_cohmem_prioritized_doubley_memoryGHz


At:
  build/X86/python/m5/util/convert.py(144): convert
  build/X86/python/m5/util/convert.py(164): toNum
  build/X86/python/m5/util/convert.py(208): anyToLatency
  build/X86/python/m5/params.py(1527): __init__
  build/X86/python/m5/params.py(209): convert
  build/X86/python/m5/params.py(336): <listcomp>
  build/X86/python/m5/params.py(336): convert
  build/X86/python/m5/SimObject.py(824): __setattr__
  build/X86/python/m5/SimObject.py(720): __init__
  /home/min/a/green456/netsmith_icpp24/auto_top_gem5/configs/topologies/FS_NoCI_EscapeVirtualNetworks.py(128): makeTopology
  /home/min/a/green456/netsmith_icpp24/auto_top_gem5/configs/ruby/Ruby.py(224): create_system
  configs/netsmith/netsmith_parsec.py(218): build_test_system
  configs/netsmith/netsmith_parsec.py(518): <module>
  build/X86/python/m5/main.py(434): main
gem5 Simulator System.  https://www.gem5.org
gem5 is copyrighted software; use the --copyright option for details.

gem5 version 22.0.0.2
gem5 compiled Apr 28 2024 22:23:45
gem5 started Jun 14 2024 17:27:06
gem5 executing on mnemosyne.ecn.purdue.edu, pid 16999
command line: ./build/X86/gem5.fast -d ./parsec_results/noci_32GBxDDR4/1000warmup_1000simul/x264/my_20r_4p_25ll_topo_noci_picky_mclb_cohmem_prioritized_doubley_memory_hops_6vns/ configs/netsmith/netsmith_parsec.py -I 1000 --insts_after_warmup 1000 --benchmark_parsec x264 -r 1 --checkpoint-dir ./parsec_noci_checkpoints/roi_checkpoint/system_5/x264 --kernel ./parsec_disk_image/vmlinux-5.4.49 --disk-image ./parsec_disk_image/x86-parsec --router_map_file ./topologies_and_routing/topo_maps/noci/my_20r_4p_25ll_topo_noci.map --flat_vn_map_file topologies_and_routing/vn_maps/my_20r_4p_25ll_topo_noci_picky_mclb_cohmem_prioritized_doubley_memory_hops_6vns.vn --flat_nr_map_file topologies_and_routing/nr_lists/my_20r_4p_25ll_topo_noci_picky_mclb_cohmem_prioritized_doubley_memory.nrl --noi_clk my_20r_4p_25ll_topo_noci_picky_mclb_cohmem_prioritized_doubley_memoryGHz --vcs-per-vnet 10 --evn_n_deadlock_free 1 --evn_min_n_deadlock_free 6 --evn_deadlock_partition 4 --topology FS_NoCI_EscapeVirtualNetworks --noi_routers 20 --noc_clk 3.8GHz --sys-clock 3.8GHz --cpu-clock 3.8GHz --ruby-clock 3.8GHz --num-cpus 64 --mem_or_coh mem --num-dirs 32 --caches --num-l2caches 64 --l2_size 2MB --num_chiplets 4 --mem-size 32GB --ruby --network garnet --link-width-bits 64 --cpu-type X86O3CPU --routing-algorithm 2 --use_escape_vns --mem-type DDR4_2400_16x4

l1_caches(64)=[<m5.objects.L1Cache_Controller.L1Cache_Controller object at 0x7f842d2cfeb8>, <m5.objects.L1Cache_Controller.L1Cache_Controller object at 0x7f842d2d3f28>, <m5.objects.L1Cache_Controller.L1Cache_Controller object at 0x7f842d2e0f28>, <m5.objects.L1Cache_Controller.L1Cache_Controller object at 0x7f842d2e9f28>, <m5.objects.L1Cache_Controller.L1Cache_Controller object at 0x7f842d2f2f28>, <m5.objects.L1Cache_Controller.L1Cache_Controller object at 0x7f842d27bf28>, <m5.objects.L1Cache_Controller.L1Cache_Controller object at 0x7f842d284f28>, <m5.objects.L1Cache_Controller.L1Cache_Controller object at 0x7f842d28ef28>, <m5.objects.L1Cache_Controller.L1Cache_Controller object at 0x7f842d297f28>, <m5.objects.L1Cache_Controller.L1Cache_Controller object at 0x7f842d29ef28>, <m5.objects.L1Cache_Controller.L1Cache_Controller object at 0x7f842d2a9f28>, <m5.objects.L1Cache_Controller.L1Cache_Controller object at 0x7f842d2b1f28>, <m5.objects.L1Cache_Controller.L1Cache_Controller object at 0x7f842d23bf28>, <m5.objects.L1Cache_Controller.L1Cache_Controller object at 0x7f842d243f28>, <m5.objects.L1Cache_Controller.L1Cache_Controller object at 0x7f842d24cf28>, <m5.objects.L1Cache_Controller.L1Cache_Controller object at 0x7f842d256f28>, <m5.objects.L1Cache_Controller.L1Cache_Controller object at 0x7f842d25ff28>, <m5.objects.L1Cache_Controller.L1Cache_Controller object at 0x7f842d268f28>, <m5.objects.L1Cache_Controller.L1Cache_Controller object at 0x7f842d270f28>, <m5.objects.L1Cache_Controller.L1Cache_Controller object at 0x7f842d1fbf28>, <m5.objects.L1Cache_Controller.L1Cache_Controller object at 0x7f842d203f28>, <m5.objects.L1Cache_Controller.L1Cache_Controller object at 0x7f842d20df28>, <m5.objects.L1Cache_Controller.L1Cache_Controller object at 0x7f842d215f28>, <m5.objects.L1Cache_Controller.L1Cache_Controller object at 0x7f842d220f28>, <m5.objects.L1Cache_Controller.L1Cache_Controller object at 0x7f842d228f28>, <m5.objects.L1Cache_Controller.L1Cache_Controller object at 0x7f842d232f28>, <m5.objects.L1Cache_Controller.L1Cache_Controller object at 0x7f842d1baf28>, <m5.objects.L1Cache_Controller.L1Cache_Controller object at 0x7f842d1c2f28>, <m5.objects.L1Cache_Controller.L1Cache_Controller object at 0x7f842d1ccf28>, <m5.objects.L1Cache_Controller.L1Cache_Controller object at 0x7f842d1d5f28>, <m5.objects.L1Cache_Controller.L1Cache_Controller object at 0x7f842d1dff28>, <m5.objects.L1Cache_Controller.L1Cache_Controller object at 0x7f842d1e8f28>, <m5.objects.L1Cache_Controller.L1Cache_Controller object at 0x7f842d1f2f28>, <m5.objects.L1Cache_Controller.L1Cache_Controller object at 0x7f842d17af28>, <m5.objects.L1Cache_Controller.L1Cache_Controller object at 0x7f842d182f28>, <m5.objects.L1Cache_Controller.L1Cache_Controller object at 0x7f842d18cf28>, <m5.objects.L1Cache_Controller.L1Cache_Controller object at 0x7f842d195f28>, <m5.objects.L1Cache_Controller.L1Cache_Controller object at 0x7f842d19ef28>, <m5.objects.L1Cache_Controller.L1Cache_Controller object at 0x7f842d1a6f28>, <m5.objects.L1Cache_Controller.L1Cache_Controller object at 0x7f842d1b0f28>, <m5.objects.L1Cache_Controller.L1Cache_Controller object at 0x7f842d1b8f28>, <m5.objects.L1Cache_Controller.L1Cache_Controller object at 0x7f842d142f28>, <m5.objects.L1Cache_Controller.L1Cache_Controller object at 0x7f842d14af28>, <m5.objects.L1Cache_Controller.L1Cache_Controller object at 0x7f842d155f28>, <m5.objects.L1Cache_Controller.L1Cache_Controller object at 0x7f842d15ef28>, <m5.objects.L1Cache_Controller.L1Cache_Controller object at 0x7f842d167f28>, <m5.objects.L1Cache_Controller.L1Cache_Controller object at 0x7f842d170f28>, <m5.objects.L1Cache_Controller.L1Cache_Controller object at 0x7f842d179f28>, <m5.objects.L1Cache_Controller.L1Cache_Controller object at 0x7f842d103f28>, <m5.objects.L1Cache_Controller.L1Cache_Controller object at 0x7f842d10cf28>, <m5.objects.L1Cache_Controller.L1Cache_Controller object at 0x7f842d116f28>, <m5.objects.L1Cache_Controller.L1Cache_Controller object at 0x7f842d11ef28>, <m5.objects.L1Cache_Controller.L1Cache_Controller object at 0x7f842d127f28>, <m5.objects.L1Cache_Controller.L1Cache_Controller object at 0x7f842d130f28>, <m5.objects.L1Cache_Controller.L1Cache_Controller object at 0x7f842d139f28>, <m5.objects.L1Cache_Controller.L1Cache_Controller object at 0x7f842d0c3f28>, <m5.objects.L1Cache_Controller.L1Cache_Controller object at 0x7f842d0ccf28>, <m5.objects.L1Cache_Controller.L1Cache_Controller object at 0x7f842d0d6f28>, <m5.objects.L1Cache_Controller.L1Cache_Controller object at 0x7f842d0dff28>, <m5.objects.L1Cache_Controller.L1Cache_Controller object at 0x7f842d0e5f28>, <m5.objects.L1Cache_Controller.L1Cache_Controller object at 0x7f842d0eff28>, <m5.objects.L1Cache_Controller.L1Cache_Controller object at 0x7f842d0f8f28>, <m5.objects.L1Cache_Controller.L1Cache_Controller object at 0x7f842d081f28>, <m5.objects.L1Cache_Controller.L1Cache_Controller object at 0x7f842d08af28>]

l2_caches(64)=[<m5.objects.L2Cache_Controller.L2Cache_Controller object at 0x7f842d093c18>, <m5.objects.L2Cache_Controller.L2Cache_Controller object at 0x7f842d09b6a0>, <m5.objects.L2Cache_Controller.L2Cache_Controller object at 0x7f842d0a5128>, <m5.objects.L2Cache_Controller.L2Cache_Controller object at 0x7f842d0a5b70>, <m5.objects.L2Cache_Controller.L2Cache_Controller object at 0x7f842d0ad5f8>, <m5.objects.L2Cache_Controller.L2Cache_Controller object at 0x7f842d0b7080>, <m5.objects.L2Cache_Controller.L2Cache_Controller object at 0x7f842d0b7ac8>, <m5.objects.L2Cache_Controller.L2Cache_Controller object at 0x7f842d03f550>, <m5.objects.L2Cache_Controller.L2Cache_Controller object at 0x7f842d03ff98>, <m5.objects.L2Cache_Controller.L2Cache_Controller object at 0x7f842d048a20>, <m5.objects.L2Cache_Controller.L2Cache_Controller object at 0x7f842d0514a8>, <m5.objects.L2Cache_Controller.L2Cache_Controller object at 0x7f842d051ef0>, <m5.objects.L2Cache_Controller.L2Cache_Controller object at 0x7f842d059978>, <m5.objects.L2Cache_Controller.L2Cache_Controller object at 0x7f842d063400>, <m5.objects.L2Cache_Controller.L2Cache_Controller object at 0x7f842d063e48>, <m5.objects.L2Cache_Controller.L2Cache_Controller object at 0x7f842d06c8d0>, <m5.objects.L2Cache_Controller.L2Cache_Controller object at 0x7f842d074358>, <m5.objects.L2Cache_Controller.L2Cache_Controller object at 0x7f842d074da0>, <m5.objects.L2Cache_Controller.L2Cache_Controller object at 0x7f842cffe828>, <m5.objects.L2Cache_Controller.L2Cache_Controller object at 0x7f842d0072b0>, <m5.objects.L2Cache_Controller.L2Cache_Controller object at 0x7f842d007cf8>, <m5.objects.L2Cache_Controller.L2Cache_Controller object at 0x7f842d011780>, <m5.objects.L2Cache_Controller.L2Cache_Controller object at 0x7f842d01a208>, <m5.objects.L2Cache_Controller.L2Cache_Controller object at 0x7f842d01ac50>, <m5.objects.L2Cache_Controller.L2Cache_Controller object at 0x7f842d0226d8>, <m5.objects.L2Cache_Controller.L2Cache_Controller object at 0x7f842d02c160>, <m5.objects.L2Cache_Controller.L2Cache_Controller object at 0x7f842d02cba8>, <m5.objects.L2Cache_Controller.L2Cache_Controller object at 0x7f842d034630>, <m5.objects.L2Cache_Controller.L2Cache_Controller object at 0x7f842cfbe0b8>, <m5.objects.L2Cache_Controller.L2Cache_Controller object at 0x7f842cfbeb00>, <m5.objects.L2Cache_Controller.L2Cache_Controller object at 0x7f842cfc7588>, <m5.objects.L2Cache_Controller.L2Cache_Controller object at 0x7f842cfc7fd0>, <m5.objects.L2Cache_Controller.L2Cache_Controller object at 0x7f842cfd0a58>, <m5.objects.L2Cache_Controller.L2Cache_Controller object at 0x7f842cfd94e0>, <m5.objects.L2Cache_Controller.L2Cache_Controller object at 0x7f842cfd9f28>, <m5.objects.L2Cache_Controller.L2Cache_Controller object at 0x7f842cfe29b0>, <m5.objects.L2Cache_Controller.L2Cache_Controller object at 0x7f842cfe8438>, <m5.objects.L2Cache_Controller.L2Cache_Controller object at 0x7f842cfe8e80>, <m5.objects.L2Cache_Controller.L2Cache_Controller object at 0x7f842cff3908>, <m5.objects.L2Cache_Controller.L2Cache_Controller object at 0x7f842cf7b390>, <m5.objects.L2Cache_Controller.L2Cache_Controller object at 0x7f842cf7bdd8>, <m5.objects.L2Cache_Controller.L2Cache_Controller object at 0x7f842cf86860>, <m5.objects.L2Cache_Controller.L2Cache_Controller object at 0x7f842cf8e2e8>, <m5.objects.L2Cache_Controller.L2Cache_Controller object at 0x7f842cf8ed30>, <m5.objects.L2Cache_Controller.L2Cache_Controller object at 0x7f842cf967b8>, <m5.objects.L2Cache_Controller.L2Cache_Controller object at 0x7f842cfa0240>, <m5.objects.L2Cache_Controller.L2Cache_Controller object at 0x7f842cfa0c88>, <m5.objects.L2Cache_Controller.L2Cache_Controller object at 0x7f842cfa9710>, <m5.objects.L2Cache_Controller.L2Cache_Controller object at 0x7f842cfb1198>, <m5.objects.L2Cache_Controller.L2Cache_Controller object at 0x7f842cfb1be0>, <m5.objects.L2Cache_Controller.L2Cache_Controller object at 0x7f842cf3b668>, <m5.objects.L2Cache_Controller.L2Cache_Controller object at 0x7f842cf430f0>, <m5.objects.L2Cache_Controller.L2Cache_Controller object at 0x7f842cf43b38>, <m5.objects.L2Cache_Controller.L2Cache_Controller object at 0x7f842cf4c5c0>, <m5.objects.L2Cache_Controller.L2Cache_Controller object at 0x7f842cf56048>, <m5.objects.L2Cache_Controller.L2Cache_Controller object at 0x7f842cf56a90>, <m5.objects.L2Cache_Controller.L2Cache_Controller object at 0x7f842cf5e518>, <m5.objects.L2Cache_Controller.L2Cache_Controller object at 0x7f842cf5ef60>, <m5.objects.L2Cache_Controller.L2Cache_Controller object at 0x7f842cf689e8>, <m5.objects.L2Cache_Controller.L2Cache_Controller object at 0x7f842cf71470>, <m5.objects.L2Cache_Controller.L2Cache_Controller object at 0x7f842cf71eb8>, <m5.objects.L2Cache_Controller.L2Cache_Controller object at 0x7f842cefa940>, <m5.objects.L2Cache_Controller.L2Cache_Controller object at 0x7f842cf033c8>, <m5.objects.L2Cache_Controller.L2Cache_Controller object at 0x7f842cf03e10>]

dirs(32)=[<m5.objects.Directory_Controller.Directory_Controller object at 0x7f842cf0b780>, <m5.objects.Directory_Controller.Directory_Controller object at 0x7f842cf0b9b0>, <m5.objects.Directory_Controller.Directory_Controller object at 0x7f842cf0bbe0>, <m5.objects.Directory_Controller.Directory_Controller object at 0x7f842cf0be10>, <m5.objects.Directory_Controller.Directory_Controller object at 0x7f842cf17080>, <m5.objects.Directory_Controller.Directory_Controller object at 0x7f842cf172b0>, <m5.objects.Directory_Controller.Directory_Controller object at 0x7f842cf174e0>, <m5.objects.Directory_Controller.Directory_Controller object at 0x7f842cf17710>, <m5.objects.Directory_Controller.Directory_Controller object at 0x7f842cf17940>, <m5.objects.Directory_Controller.Directory_Controller object at 0x7f842cf17b70>, <m5.objects.Directory_Controller.Directory_Controller object at 0x7f842cf17da0>, <m5.objects.Directory_Controller.Directory_Controller object at 0x7f842cf17fd0>, <m5.objects.Directory_Controller.Directory_Controller object at 0x7f842cf21240>, <m5.objects.Directory_Controller.Directory_Controller object at 0x7f842cf21470>, <m5.objects.Directory_Controller.Directory_Controller object at 0x7f842cf216a0>, <m5.objects.Directory_Controller.Directory_Controller object at 0x7f842cf218d0>, <m5.objects.Directory_Controller.Directory_Controller object at 0x7f842cf21b00>, <m5.objects.Directory_Controller.Directory_Controller object at 0x7f842cf21d30>, <m5.objects.Directory_Controller.Directory_Controller object at 0x7f842cf21f60>, <m5.objects.Directory_Controller.Directory_Controller object at 0x7f842cf2d1d0>, <m5.objects.Directory_Controller.Directory_Controller object at 0x7f842cf2d400>, <m5.objects.Directory_Controller.Directory_Controller object at 0x7f842cf2d630>, <m5.objects.Directory_Controller.Directory_Controller object at 0x7f842cf2d860>, <m5.objects.Directory_Controller.Directory_Controller object at 0x7f842cf2da90>, <m5.objects.Directory_Controller.Directory_Controller object at 0x7f842cf2dcc0>, <m5.objects.Directory_Controller.Directory_Controller object at 0x7f842cf2def0>, <m5.objects.Directory_Controller.Directory_Controller object at 0x7f842cf39160>, <m5.objects.Directory_Controller.Directory_Controller object at 0x7f842cf39390>, <m5.objects.Directory_Controller.Directory_Controller object at 0x7f842cf395c0>, <m5.objects.Directory_Controller.Directory_Controller object at 0x7f842cf397f0>, <m5.objects.Directory_Controller.Directory_Controller object at 0x7f842cf39a20>, <m5.objects.Directory_Controller.Directory_Controller object at 0x7f842cf39c50>]

dmas(2)=[<m5.objects.DMA_Controller.DMA_Controller object at 0x7f842ce9d630>, <m5.objects.DMA_Controller.DMA_Controller object at 0x7f842ce9dc50>]

others(0)=[]

ingesting topologies_and_routing/nr_lists/my_20r_4p_25ll_topo_noci_picky_mclb_cohmem_prioritized_doubley_memory.nrl w/ # rotuers = 84
ingesting topologies_and_routing/vn_maps/my_20r_4p_25ll_topo_noci_picky_mclb_cohmem_prioritized_doubley_memory_hops_6vns.vn
warn: Memory mode will be changed to atomic_noncaching
warn: Physical memory size specified is 32GB which is greater than 3GB.  Twice the number of memory controllers would be created.
