gem5 Simulator System.  https://www.gem5.org
gem5 is copyrighted software; use the --copyright option for details.

gem5 version 22.0.0.2
gem5 compiled Jun 17 2023 14:31:12
gem5 started Nov 18 2023 15:50:04
gem5 executing on mnemosyne14.ecn.purdue.edu, pid 23776
command line: ./build/Garnet_standalone/gem5.fast -d ./synth_outputs/simple/2b/mixed/mclb_hops_4_6_40cpus_4xdirs_4.0GHz/coh/ns_s_latop/0_175/ configs/auto_top/auto_top_synth.py --topology EscapeVirtualNetworks --noi_routers 20 --sim-cycles 2147483647 --injectionrate 0.175 --noc_clk 4.0GHz --sys-clock 4.0GHz --ruby-clock 4.0GHz --noi_clk 3.6GHz --router_map_file configs/topologies/paper_solutions/ns_s_latop.map --flat_vn_map_file configs/topologies/vn_maps_mclb/ns_s_latop_mclb_hops_4vns.vn --flat_nr_map_file configs/topologies/nr_list_mclb/ns_s_latop_mclb.nrl --ruby --mem_or_coh coh --mem-size 320000000 --num-dirs 160 --num-cpus 40 --network garnet --mem-type SimpleMemory --routing-algorithm 2 --use_escape_vns --synth_traffic --vcs-per-vnet 6 --evn_deadlock_partition 2 --evn_n_deadlock_free 1 --evn_min_n_deadlock_free 4

info: Standard input is not a terminal, disabling listeners.
ingesting configs/topologies/vn_maps_mclb/ns_s_latop_mclb_hops_4vns.vn
cpus(40)=[<m5.objects.GarnetSyntheticTraffic.GarnetSyntheticTraffic object at 0x7f79e75f0048>, <m5.objects.GarnetSyntheticTraffic.GarnetSyntheticTraffic object at 0x7f79e75f0e10>, <m5.objects.GarnetSyntheticTraffic.GarnetSyntheticTraffic object at 0x7f79e716d128>, <m5.objects.GarnetSyntheticTraffic.GarnetSyntheticTraffic object at 0x7f79e716d400>, <m5.objects.GarnetSyntheticTraffic.GarnetSyntheticTraffic object at 0x7f79e716d6d8>, <m5.objects.GarnetSyntheticTraffic.GarnetSyntheticTraffic object at 0x7f79e716d9b0>, <m5.objects.GarnetSyntheticTraffic.GarnetSyntheticTraffic object at 0x7f79e716dc88>, <m5.objects.GarnetSyntheticTraffic.GarnetSyntheticTraffic object at 0x7f79e716df60>, <m5.objects.GarnetSyntheticTraffic.GarnetSyntheticTraffic object at 0x7f79e7176278>, <m5.objects.GarnetSyntheticTraffic.GarnetSyntheticTraffic object at 0x7f79e7176550>, <m5.objects.GarnetSyntheticTraffic.GarnetSyntheticTraffic object at 0x7f79e7176828>, <m5.objects.GarnetSyntheticTraffic.GarnetSyntheticTraffic object at 0x7f79e7176b00>, <m5.objects.GarnetSyntheticTraffic.GarnetSyntheticTraffic object at 0x7f79e75f0860>, <m5.objects.GarnetSyntheticTraffic.GarnetSyntheticTraffic object at 0x7f79e75e0eb8>, <m5.objects.GarnetSyntheticTraffic.GarnetSyntheticTraffic object at 0x7f79e75eb550>, <m5.objects.GarnetSyntheticTraffic.GarnetSyntheticTraffic object at 0x7f79e75ebcf8>, <m5.objects.GarnetSyntheticTraffic.GarnetSyntheticTraffic object at 0x7f79e7176d30>, <m5.objects.GarnetSyntheticTraffic.GarnetSyntheticTraffic object at 0x7f79e7182048>, <m5.objects.GarnetSyntheticTraffic.GarnetSyntheticTraffic object at 0x7f79e7182320>, <m5.objects.GarnetSyntheticTraffic.GarnetSyntheticTraffic object at 0x7f79e71825f8>, <m5.objects.GarnetSyntheticTraffic.GarnetSyntheticTraffic object at 0x7f79e71828d0>, <m5.objects.GarnetSyntheticTraffic.GarnetSyntheticTraffic object at 0x7f79e7182ba8>, <m5.objects.GarnetSyntheticTraffic.GarnetSyntheticTraffic object at 0x7f79e7182e80>, <m5.objects.GarnetSyntheticTraffic.GarnetSyntheticTraffic object at 0x7f79e7189198>, <m5.objects.GarnetSyntheticTraffic.GarnetSyntheticTraffic object at 0x7f79e7189470>, <m5.objects.GarnetSyntheticTraffic.GarnetSyntheticTraffic object at 0x7f79e7189748>, <m5.objects.GarnetSyntheticTraffic.GarnetSyntheticTraffic object at 0x7f79e7189a20>, <m5.objects.GarnetSyntheticTraffic.GarnetSyntheticTraffic object at 0x7f79e7189cf8>, <m5.objects.GarnetSyntheticTraffic.GarnetSyntheticTraffic object at 0x7f79e7189fd0>, <m5.objects.GarnetSyntheticTraffic.GarnetSyntheticTraffic object at 0x7f79e71912e8>, <m5.objects.GarnetSyntheticTraffic.GarnetSyntheticTraffic object at 0x7f79e71915c0>, <m5.objects.GarnetSyntheticTraffic.GarnetSyntheticTraffic object at 0x7f79e7191898>, <m5.objects.GarnetSyntheticTraffic.GarnetSyntheticTraffic object at 0x7f79e7191b70>, <m5.objects.GarnetSyntheticTraffic.GarnetSyntheticTraffic object at 0x7f79e7191e48>, <m5.objects.GarnetSyntheticTraffic.GarnetSyntheticTraffic object at 0x7f79e719a160>, <m5.objects.GarnetSyntheticTraffic.GarnetSyntheticTraffic object at 0x7f79e719a438>, <m5.objects.GarnetSyntheticTraffic.GarnetSyntheticTraffic object at 0x7f79e719a710>, <m5.objects.GarnetSyntheticTraffic.GarnetSyntheticTraffic object at 0x7f79e719a9e8>, <m5.objects.GarnetSyntheticTraffic.GarnetSyntheticTraffic object at 0x7f79e719acc0>, <m5.objects.GarnetSyntheticTraffic.GarnetSyntheticTraffic object at 0x7f79e719af98>])
ingesting configs/topologies/nr_list_mclb/ns_s_latop_mclb.nrl
ingesting configs/topologies/vn_maps_mclb/ns_s_latop_mclb_hops_4vns.vn
ext_cdc_required = True
