
---------- Begin Simulation Statistics ----------
simSeconds                                   0.002147                       # Number of seconds simulated (Second)
simTicks                                   2147483750                       # Number of ticks simulated (Tick)
finalTick                                  2147483750                       # Number of ticks from beginning of simulation (restored from checkpoints and never reset) (Tick)
simFreq                                  1000000000000                       # The number of ticks per simulated second ((Tick/Second))
hostSeconds                                   6357.94                       # Real time elapsed on the host (Second)
hostTickRate                                   337764                       # The number of ticks simulated per host second (ticks/s) ((Tick/Second))
hostMemory                                    3664920                       # Number of bytes of host memory used (Byte)
system.clk_domain.clock                           250                       # Clock period in ticks (Tick)
system.cpu0.power_state.pwrStateResidencyTicks::UNDEFINED   2147483750                       # Cumulative time (in ticks) in various power states (Tick)
system.cpu1.power_state.pwrStateResidencyTicks::UNDEFINED   2147483750                       # Cumulative time (in ticks) in various power states (Tick)
system.cpu10.power_state.pwrStateResidencyTicks::UNDEFINED   2147483750                       # Cumulative time (in ticks) in various power states (Tick)
system.cpu11.power_state.pwrStateResidencyTicks::UNDEFINED   2147483750                       # Cumulative time (in ticks) in various power states (Tick)
system.cpu12.power_state.pwrStateResidencyTicks::UNDEFINED   2147483750                       # Cumulative time (in ticks) in various power states (Tick)
system.cpu13.power_state.pwrStateResidencyTicks::UNDEFINED   2147483750                       # Cumulative time (in ticks) in various power states (Tick)
system.cpu14.power_state.pwrStateResidencyTicks::UNDEFINED   2147483750                       # Cumulative time (in ticks) in various power states (Tick)
system.cpu15.power_state.pwrStateResidencyTicks::UNDEFINED   2147483750                       # Cumulative time (in ticks) in various power states (Tick)
system.cpu16.power_state.pwrStateResidencyTicks::UNDEFINED   2147483750                       # Cumulative time (in ticks) in various power states (Tick)
system.cpu17.power_state.pwrStateResidencyTicks::UNDEFINED   2147483750                       # Cumulative time (in ticks) in various power states (Tick)
system.cpu18.power_state.pwrStateResidencyTicks::UNDEFINED   2147483750                       # Cumulative time (in ticks) in various power states (Tick)
system.cpu19.power_state.pwrStateResidencyTicks::UNDEFINED   2147483750                       # Cumulative time (in ticks) in various power states (Tick)
system.cpu2.power_state.pwrStateResidencyTicks::UNDEFINED   2147483750                       # Cumulative time (in ticks) in various power states (Tick)
system.cpu20.power_state.pwrStateResidencyTicks::UNDEFINED   2147483750                       # Cumulative time (in ticks) in various power states (Tick)
system.cpu21.power_state.pwrStateResidencyTicks::UNDEFINED   2147483750                       # Cumulative time (in ticks) in various power states (Tick)
system.cpu22.power_state.pwrStateResidencyTicks::UNDEFINED   2147483750                       # Cumulative time (in ticks) in various power states (Tick)
system.cpu23.power_state.pwrStateResidencyTicks::UNDEFINED   2147483750                       # Cumulative time (in ticks) in various power states (Tick)
system.cpu24.power_state.pwrStateResidencyTicks::UNDEFINED   2147483750                       # Cumulative time (in ticks) in various power states (Tick)
system.cpu25.power_state.pwrStateResidencyTicks::UNDEFINED   2147483750                       # Cumulative time (in ticks) in various power states (Tick)
system.cpu26.power_state.pwrStateResidencyTicks::UNDEFINED   2147483750                       # Cumulative time (in ticks) in various power states (Tick)
system.cpu27.power_state.pwrStateResidencyTicks::UNDEFINED   2147483750                       # Cumulative time (in ticks) in various power states (Tick)
system.cpu28.power_state.pwrStateResidencyTicks::UNDEFINED   2147483750                       # Cumulative time (in ticks) in various power states (Tick)
system.cpu29.power_state.pwrStateResidencyTicks::UNDEFINED   2147483750                       # Cumulative time (in ticks) in various power states (Tick)
system.cpu3.power_state.pwrStateResidencyTicks::UNDEFINED   2147483750                       # Cumulative time (in ticks) in various power states (Tick)
system.cpu30.power_state.pwrStateResidencyTicks::UNDEFINED   2147483750                       # Cumulative time (in ticks) in various power states (Tick)
system.cpu31.power_state.pwrStateResidencyTicks::UNDEFINED   2147483750                       # Cumulative time (in ticks) in various power states (Tick)
system.cpu32.power_state.pwrStateResidencyTicks::UNDEFINED   2147483750                       # Cumulative time (in ticks) in various power states (Tick)
system.cpu33.power_state.pwrStateResidencyTicks::UNDEFINED   2147483750                       # Cumulative time (in ticks) in various power states (Tick)
system.cpu34.power_state.pwrStateResidencyTicks::UNDEFINED   2147483750                       # Cumulative time (in ticks) in various power states (Tick)
system.cpu35.power_state.pwrStateResidencyTicks::UNDEFINED   2147483750                       # Cumulative time (in ticks) in various power states (Tick)
system.cpu36.power_state.pwrStateResidencyTicks::UNDEFINED   2147483750                       # Cumulative time (in ticks) in various power states (Tick)
system.cpu37.power_state.pwrStateResidencyTicks::UNDEFINED   2147483750                       # Cumulative time (in ticks) in various power states (Tick)
system.cpu38.power_state.pwrStateResidencyTicks::UNDEFINED   2147483750                       # Cumulative time (in ticks) in various power states (Tick)
system.cpu39.power_state.pwrStateResidencyTicks::UNDEFINED   2147483750                       # Cumulative time (in ticks) in various power states (Tick)
system.cpu4.power_state.pwrStateResidencyTicks::UNDEFINED   2147483750                       # Cumulative time (in ticks) in various power states (Tick)
system.cpu5.power_state.pwrStateResidencyTicks::UNDEFINED   2147483750                       # Cumulative time (in ticks) in various power states (Tick)
system.cpu6.power_state.pwrStateResidencyTicks::UNDEFINED   2147483750                       # Cumulative time (in ticks) in various power states (Tick)
system.cpu7.power_state.pwrStateResidencyTicks::UNDEFINED   2147483750                       # Cumulative time (in ticks) in various power states (Tick)
system.cpu8.power_state.pwrStateResidencyTicks::UNDEFINED   2147483750                       # Cumulative time (in ticks) in various power states (Tick)
system.cpu9.power_state.pwrStateResidencyTicks::UNDEFINED   2147483750                       # Cumulative time (in ticks) in various power states (Tick)
system.mem_ctrls0.power_state.pwrStateResidencyTicks::UNDEFINED   2147483750                       # Cumulative time (in ticks) in various power states (Tick)
system.mem_ctrls1.power_state.pwrStateResidencyTicks::UNDEFINED   2147483750                       # Cumulative time (in ticks) in various power states (Tick)
system.mem_ctrls10.power_state.pwrStateResidencyTicks::UNDEFINED   2147483750                       # Cumulative time (in ticks) in various power states (Tick)
system.mem_ctrls100.power_state.pwrStateResidencyTicks::UNDEFINED   2147483750                       # Cumulative time (in ticks) in various power states (Tick)
system.mem_ctrls101.power_state.pwrStateResidencyTicks::UNDEFINED   2147483750                       # Cumulative time (in ticks) in various power states (Tick)
system.mem_ctrls102.power_state.pwrStateResidencyTicks::UNDEFINED   2147483750                       # Cumulative time (in ticks) in various power states (Tick)
system.mem_ctrls103.power_state.pwrStateResidencyTicks::UNDEFINED   2147483750                       # Cumulative time (in ticks) in various power states (Tick)
system.mem_ctrls104.power_state.pwrStateResidencyTicks::UNDEFINED   2147483750                       # Cumulative time (in ticks) in various power states (Tick)
system.mem_ctrls105.power_state.pwrStateResidencyTicks::UNDEFINED   2147483750                       # Cumulative time (in ticks) in various power states (Tick)
system.mem_ctrls106.power_state.pwrStateResidencyTicks::UNDEFINED   2147483750                       # Cumulative time (in ticks) in various power states (Tick)
system.mem_ctrls107.power_state.pwrStateResidencyTicks::UNDEFINED   2147483750                       # Cumulative time (in ticks) in various power states (Tick)
system.mem_ctrls108.power_state.pwrStateResidencyTicks::UNDEFINED   2147483750                       # Cumulative time (in ticks) in various power states (Tick)
system.mem_ctrls109.power_state.pwrStateResidencyTicks::UNDEFINED   2147483750                       # Cumulative time (in ticks) in various power states (Tick)
system.mem_ctrls11.power_state.pwrStateResidencyTicks::UNDEFINED   2147483750                       # Cumulative time (in ticks) in various power states (Tick)
system.mem_ctrls110.power_state.pwrStateResidencyTicks::UNDEFINED   2147483750                       # Cumulative time (in ticks) in various power states (Tick)
system.mem_ctrls111.power_state.pwrStateResidencyTicks::UNDEFINED   2147483750                       # Cumulative time (in ticks) in various power states (Tick)
system.mem_ctrls112.power_state.pwrStateResidencyTicks::UNDEFINED   2147483750                       # Cumulative time (in ticks) in various power states (Tick)
system.mem_ctrls113.power_state.pwrStateResidencyTicks::UNDEFINED   2147483750                       # Cumulative time (in ticks) in various power states (Tick)
system.mem_ctrls114.power_state.pwrStateResidencyTicks::UNDEFINED   2147483750                       # Cumulative time (in ticks) in various power states (Tick)
system.mem_ctrls115.power_state.pwrStateResidencyTicks::UNDEFINED   2147483750                       # Cumulative time (in ticks) in various power states (Tick)
system.mem_ctrls116.power_state.pwrStateResidencyTicks::UNDEFINED   2147483750                       # Cumulative time (in ticks) in various power states (Tick)
system.mem_ctrls117.power_state.pwrStateResidencyTicks::UNDEFINED   2147483750                       # Cumulative time (in ticks) in various power states (Tick)
system.mem_ctrls118.power_state.pwrStateResidencyTicks::UNDEFINED   2147483750                       # Cumulative time (in ticks) in various power states (Tick)
system.mem_ctrls119.power_state.pwrStateResidencyTicks::UNDEFINED   2147483750                       # Cumulative time (in ticks) in various power states (Tick)
system.mem_ctrls12.power_state.pwrStateResidencyTicks::UNDEFINED   2147483750                       # Cumulative time (in ticks) in various power states (Tick)
system.mem_ctrls120.power_state.pwrStateResidencyTicks::UNDEFINED   2147483750                       # Cumulative time (in ticks) in various power states (Tick)
system.mem_ctrls121.power_state.pwrStateResidencyTicks::UNDEFINED   2147483750                       # Cumulative time (in ticks) in various power states (Tick)
system.mem_ctrls122.power_state.pwrStateResidencyTicks::UNDEFINED   2147483750                       # Cumulative time (in ticks) in various power states (Tick)
system.mem_ctrls123.power_state.pwrStateResidencyTicks::UNDEFINED   2147483750                       # Cumulative time (in ticks) in various power states (Tick)
system.mem_ctrls124.power_state.pwrStateResidencyTicks::UNDEFINED   2147483750                       # Cumulative time (in ticks) in various power states (Tick)
system.mem_ctrls125.power_state.pwrStateResidencyTicks::UNDEFINED   2147483750                       # Cumulative time (in ticks) in various power states (Tick)
system.mem_ctrls126.power_state.pwrStateResidencyTicks::UNDEFINED   2147483750                       # Cumulative time (in ticks) in various power states (Tick)
system.mem_ctrls127.power_state.pwrStateResidencyTicks::UNDEFINED   2147483750                       # Cumulative time (in ticks) in various power states (Tick)
system.mem_ctrls128.power_state.pwrStateResidencyTicks::UNDEFINED   2147483750                       # Cumulative time (in ticks) in various power states (Tick)
system.mem_ctrls129.power_state.pwrStateResidencyTicks::UNDEFINED   2147483750                       # Cumulative time (in ticks) in various power states (Tick)
system.mem_ctrls13.power_state.pwrStateResidencyTicks::UNDEFINED   2147483750                       # Cumulative time (in ticks) in various power states (Tick)
system.mem_ctrls130.power_state.pwrStateResidencyTicks::UNDEFINED   2147483750                       # Cumulative time (in ticks) in various power states (Tick)
system.mem_ctrls131.power_state.pwrStateResidencyTicks::UNDEFINED   2147483750                       # Cumulative time (in ticks) in various power states (Tick)
system.mem_ctrls132.power_state.pwrStateResidencyTicks::UNDEFINED   2147483750                       # Cumulative time (in ticks) in various power states (Tick)
system.mem_ctrls133.power_state.pwrStateResidencyTicks::UNDEFINED   2147483750                       # Cumulative time (in ticks) in various power states (Tick)
system.mem_ctrls134.power_state.pwrStateResidencyTicks::UNDEFINED   2147483750                       # Cumulative time (in ticks) in various power states (Tick)
system.mem_ctrls135.power_state.pwrStateResidencyTicks::UNDEFINED   2147483750                       # Cumulative time (in ticks) in various power states (Tick)
system.mem_ctrls136.power_state.pwrStateResidencyTicks::UNDEFINED   2147483750                       # Cumulative time (in ticks) in various power states (Tick)
system.mem_ctrls137.power_state.pwrStateResidencyTicks::UNDEFINED   2147483750                       # Cumulative time (in ticks) in various power states (Tick)
system.mem_ctrls138.power_state.pwrStateResidencyTicks::UNDEFINED   2147483750                       # Cumulative time (in ticks) in various power states (Tick)
system.mem_ctrls139.power_state.pwrStateResidencyTicks::UNDEFINED   2147483750                       # Cumulative time (in ticks) in various power states (Tick)
system.mem_ctrls14.power_state.pwrStateResidencyTicks::UNDEFINED   2147483750                       # Cumulative time (in ticks) in various power states (Tick)
system.mem_ctrls140.power_state.pwrStateResidencyTicks::UNDEFINED   2147483750                       # Cumulative time (in ticks) in various power states (Tick)
system.mem_ctrls141.power_state.pwrStateResidencyTicks::UNDEFINED   2147483750                       # Cumulative time (in ticks) in various power states (Tick)
system.mem_ctrls142.power_state.pwrStateResidencyTicks::UNDEFINED   2147483750                       # Cumulative time (in ticks) in various power states (Tick)
system.mem_ctrls143.power_state.pwrStateResidencyTicks::UNDEFINED   2147483750                       # Cumulative time (in ticks) in various power states (Tick)
system.mem_ctrls144.power_state.pwrStateResidencyTicks::UNDEFINED   2147483750                       # Cumulative time (in ticks) in various power states (Tick)
system.mem_ctrls145.power_state.pwrStateResidencyTicks::UNDEFINED   2147483750                       # Cumulative time (in ticks) in various power states (Tick)
system.mem_ctrls146.power_state.pwrStateResidencyTicks::UNDEFINED   2147483750                       # Cumulative time (in ticks) in various power states (Tick)
system.mem_ctrls147.power_state.pwrStateResidencyTicks::UNDEFINED   2147483750                       # Cumulative time (in ticks) in various power states (Tick)
system.mem_ctrls148.power_state.pwrStateResidencyTicks::UNDEFINED   2147483750                       # Cumulative time (in ticks) in various power states (Tick)
system.mem_ctrls149.power_state.pwrStateResidencyTicks::UNDEFINED   2147483750                       # Cumulative time (in ticks) in various power states (Tick)
system.mem_ctrls15.power_state.pwrStateResidencyTicks::UNDEFINED   2147483750                       # Cumulative time (in ticks) in various power states (Tick)
system.mem_ctrls150.power_state.pwrStateResidencyTicks::UNDEFINED   2147483750                       # Cumulative time (in ticks) in various power states (Tick)
system.mem_ctrls151.power_state.pwrStateResidencyTicks::UNDEFINED   2147483750                       # Cumulative time (in ticks) in various power states (Tick)
system.mem_ctrls152.power_state.pwrStateResidencyTicks::UNDEFINED   2147483750                       # Cumulative time (in ticks) in various power states (Tick)
system.mem_ctrls153.power_state.pwrStateResidencyTicks::UNDEFINED   2147483750                       # Cumulative time (in ticks) in various power states (Tick)
system.mem_ctrls154.power_state.pwrStateResidencyTicks::UNDEFINED   2147483750                       # Cumulative time (in ticks) in various power states (Tick)
system.mem_ctrls155.power_state.pwrStateResidencyTicks::UNDEFINED   2147483750                       # Cumulative time (in ticks) in various power states (Tick)
system.mem_ctrls156.power_state.pwrStateResidencyTicks::UNDEFINED   2147483750                       # Cumulative time (in ticks) in various power states (Tick)
system.mem_ctrls157.power_state.pwrStateResidencyTicks::UNDEFINED   2147483750                       # Cumulative time (in ticks) in various power states (Tick)
system.mem_ctrls158.power_state.pwrStateResidencyTicks::UNDEFINED   2147483750                       # Cumulative time (in ticks) in various power states (Tick)
system.mem_ctrls159.power_state.pwrStateResidencyTicks::UNDEFINED   2147483750                       # Cumulative time (in ticks) in various power states (Tick)
system.mem_ctrls16.power_state.pwrStateResidencyTicks::UNDEFINED   2147483750                       # Cumulative time (in ticks) in various power states (Tick)
system.mem_ctrls17.power_state.pwrStateResidencyTicks::UNDEFINED   2147483750                       # Cumulative time (in ticks) in various power states (Tick)
system.mem_ctrls18.power_state.pwrStateResidencyTicks::UNDEFINED   2147483750                       # Cumulative time (in ticks) in various power states (Tick)
system.mem_ctrls19.power_state.pwrStateResidencyTicks::UNDEFINED   2147483750                       # Cumulative time (in ticks) in various power states (Tick)
system.mem_ctrls2.power_state.pwrStateResidencyTicks::UNDEFINED   2147483750                       # Cumulative time (in ticks) in various power states (Tick)
system.mem_ctrls20.power_state.pwrStateResidencyTicks::UNDEFINED   2147483750                       # Cumulative time (in ticks) in various power states (Tick)
system.mem_ctrls21.power_state.pwrStateResidencyTicks::UNDEFINED   2147483750                       # Cumulative time (in ticks) in various power states (Tick)
system.mem_ctrls22.power_state.pwrStateResidencyTicks::UNDEFINED   2147483750                       # Cumulative time (in ticks) in various power states (Tick)
system.mem_ctrls23.power_state.pwrStateResidencyTicks::UNDEFINED   2147483750                       # Cumulative time (in ticks) in various power states (Tick)
system.mem_ctrls24.power_state.pwrStateResidencyTicks::UNDEFINED   2147483750                       # Cumulative time (in ticks) in various power states (Tick)
system.mem_ctrls25.power_state.pwrStateResidencyTicks::UNDEFINED   2147483750                       # Cumulative time (in ticks) in various power states (Tick)
system.mem_ctrls26.power_state.pwrStateResidencyTicks::UNDEFINED   2147483750                       # Cumulative time (in ticks) in various power states (Tick)
system.mem_ctrls27.power_state.pwrStateResidencyTicks::UNDEFINED   2147483750                       # Cumulative time (in ticks) in various power states (Tick)
system.mem_ctrls28.power_state.pwrStateResidencyTicks::UNDEFINED   2147483750                       # Cumulative time (in ticks) in various power states (Tick)
system.mem_ctrls29.power_state.pwrStateResidencyTicks::UNDEFINED   2147483750                       # Cumulative time (in ticks) in various power states (Tick)
system.mem_ctrls3.power_state.pwrStateResidencyTicks::UNDEFINED   2147483750                       # Cumulative time (in ticks) in various power states (Tick)
system.mem_ctrls30.power_state.pwrStateResidencyTicks::UNDEFINED   2147483750                       # Cumulative time (in ticks) in various power states (Tick)
system.mem_ctrls31.power_state.pwrStateResidencyTicks::UNDEFINED   2147483750                       # Cumulative time (in ticks) in various power states (Tick)
system.mem_ctrls32.power_state.pwrStateResidencyTicks::UNDEFINED   2147483750                       # Cumulative time (in ticks) in various power states (Tick)
system.mem_ctrls33.power_state.pwrStateResidencyTicks::UNDEFINED   2147483750                       # Cumulative time (in ticks) in various power states (Tick)
system.mem_ctrls34.power_state.pwrStateResidencyTicks::UNDEFINED   2147483750                       # Cumulative time (in ticks) in various power states (Tick)
system.mem_ctrls35.power_state.pwrStateResidencyTicks::UNDEFINED   2147483750                       # Cumulative time (in ticks) in various power states (Tick)
system.mem_ctrls36.power_state.pwrStateResidencyTicks::UNDEFINED   2147483750                       # Cumulative time (in ticks) in various power states (Tick)
system.mem_ctrls37.power_state.pwrStateResidencyTicks::UNDEFINED   2147483750                       # Cumulative time (in ticks) in various power states (Tick)
system.mem_ctrls38.power_state.pwrStateResidencyTicks::UNDEFINED   2147483750                       # Cumulative time (in ticks) in various power states (Tick)
system.mem_ctrls39.power_state.pwrStateResidencyTicks::UNDEFINED   2147483750                       # Cumulative time (in ticks) in various power states (Tick)
system.mem_ctrls4.power_state.pwrStateResidencyTicks::UNDEFINED   2147483750                       # Cumulative time (in ticks) in various power states (Tick)
system.mem_ctrls40.power_state.pwrStateResidencyTicks::UNDEFINED   2147483750                       # Cumulative time (in ticks) in various power states (Tick)
system.mem_ctrls41.power_state.pwrStateResidencyTicks::UNDEFINED   2147483750                       # Cumulative time (in ticks) in various power states (Tick)
system.mem_ctrls42.power_state.pwrStateResidencyTicks::UNDEFINED   2147483750                       # Cumulative time (in ticks) in various power states (Tick)
system.mem_ctrls43.power_state.pwrStateResidencyTicks::UNDEFINED   2147483750                       # Cumulative time (in ticks) in various power states (Tick)
system.mem_ctrls44.power_state.pwrStateResidencyTicks::UNDEFINED   2147483750                       # Cumulative time (in ticks) in various power states (Tick)
system.mem_ctrls45.power_state.pwrStateResidencyTicks::UNDEFINED   2147483750                       # Cumulative time (in ticks) in various power states (Tick)
system.mem_ctrls46.power_state.pwrStateResidencyTicks::UNDEFINED   2147483750                       # Cumulative time (in ticks) in various power states (Tick)
system.mem_ctrls47.power_state.pwrStateResidencyTicks::UNDEFINED   2147483750                       # Cumulative time (in ticks) in various power states (Tick)
system.mem_ctrls48.power_state.pwrStateResidencyTicks::UNDEFINED   2147483750                       # Cumulative time (in ticks) in various power states (Tick)
system.mem_ctrls49.power_state.pwrStateResidencyTicks::UNDEFINED   2147483750                       # Cumulative time (in ticks) in various power states (Tick)
system.mem_ctrls5.power_state.pwrStateResidencyTicks::UNDEFINED   2147483750                       # Cumulative time (in ticks) in various power states (Tick)
system.mem_ctrls50.power_state.pwrStateResidencyTicks::UNDEFINED   2147483750                       # Cumulative time (in ticks) in various power states (Tick)
system.mem_ctrls51.power_state.pwrStateResidencyTicks::UNDEFINED   2147483750                       # Cumulative time (in ticks) in various power states (Tick)
system.mem_ctrls52.power_state.pwrStateResidencyTicks::UNDEFINED   2147483750                       # Cumulative time (in ticks) in various power states (Tick)
system.mem_ctrls53.power_state.pwrStateResidencyTicks::UNDEFINED   2147483750                       # Cumulative time (in ticks) in various power states (Tick)
system.mem_ctrls54.power_state.pwrStateResidencyTicks::UNDEFINED   2147483750                       # Cumulative time (in ticks) in various power states (Tick)
system.mem_ctrls55.power_state.pwrStateResidencyTicks::UNDEFINED   2147483750                       # Cumulative time (in ticks) in various power states (Tick)
system.mem_ctrls56.power_state.pwrStateResidencyTicks::UNDEFINED   2147483750                       # Cumulative time (in ticks) in various power states (Tick)
system.mem_ctrls57.power_state.pwrStateResidencyTicks::UNDEFINED   2147483750                       # Cumulative time (in ticks) in various power states (Tick)
system.mem_ctrls58.power_state.pwrStateResidencyTicks::UNDEFINED   2147483750                       # Cumulative time (in ticks) in various power states (Tick)
system.mem_ctrls59.power_state.pwrStateResidencyTicks::UNDEFINED   2147483750                       # Cumulative time (in ticks) in various power states (Tick)
system.mem_ctrls6.power_state.pwrStateResidencyTicks::UNDEFINED   2147483750                       # Cumulative time (in ticks) in various power states (Tick)
system.mem_ctrls60.power_state.pwrStateResidencyTicks::UNDEFINED   2147483750                       # Cumulative time (in ticks) in various power states (Tick)
system.mem_ctrls61.power_state.pwrStateResidencyTicks::UNDEFINED   2147483750                       # Cumulative time (in ticks) in various power states (Tick)
system.mem_ctrls62.power_state.pwrStateResidencyTicks::UNDEFINED   2147483750                       # Cumulative time (in ticks) in various power states (Tick)
system.mem_ctrls63.power_state.pwrStateResidencyTicks::UNDEFINED   2147483750                       # Cumulative time (in ticks) in various power states (Tick)
system.mem_ctrls64.power_state.pwrStateResidencyTicks::UNDEFINED   2147483750                       # Cumulative time (in ticks) in various power states (Tick)
system.mem_ctrls65.power_state.pwrStateResidencyTicks::UNDEFINED   2147483750                       # Cumulative time (in ticks) in various power states (Tick)
system.mem_ctrls66.power_state.pwrStateResidencyTicks::UNDEFINED   2147483750                       # Cumulative time (in ticks) in various power states (Tick)
system.mem_ctrls67.power_state.pwrStateResidencyTicks::UNDEFINED   2147483750                       # Cumulative time (in ticks) in various power states (Tick)
system.mem_ctrls68.power_state.pwrStateResidencyTicks::UNDEFINED   2147483750                       # Cumulative time (in ticks) in various power states (Tick)
system.mem_ctrls69.power_state.pwrStateResidencyTicks::UNDEFINED   2147483750                       # Cumulative time (in ticks) in various power states (Tick)
system.mem_ctrls7.power_state.pwrStateResidencyTicks::UNDEFINED   2147483750                       # Cumulative time (in ticks) in various power states (Tick)
system.mem_ctrls70.power_state.pwrStateResidencyTicks::UNDEFINED   2147483750                       # Cumulative time (in ticks) in various power states (Tick)
system.mem_ctrls71.power_state.pwrStateResidencyTicks::UNDEFINED   2147483750                       # Cumulative time (in ticks) in various power states (Tick)
system.mem_ctrls72.power_state.pwrStateResidencyTicks::UNDEFINED   2147483750                       # Cumulative time (in ticks) in various power states (Tick)
system.mem_ctrls73.power_state.pwrStateResidencyTicks::UNDEFINED   2147483750                       # Cumulative time (in ticks) in various power states (Tick)
system.mem_ctrls74.power_state.pwrStateResidencyTicks::UNDEFINED   2147483750                       # Cumulative time (in ticks) in various power states (Tick)
system.mem_ctrls75.power_state.pwrStateResidencyTicks::UNDEFINED   2147483750                       # Cumulative time (in ticks) in various power states (Tick)
system.mem_ctrls76.power_state.pwrStateResidencyTicks::UNDEFINED   2147483750                       # Cumulative time (in ticks) in various power states (Tick)
system.mem_ctrls77.power_state.pwrStateResidencyTicks::UNDEFINED   2147483750                       # Cumulative time (in ticks) in various power states (Tick)
system.mem_ctrls78.power_state.pwrStateResidencyTicks::UNDEFINED   2147483750                       # Cumulative time (in ticks) in various power states (Tick)
system.mem_ctrls79.power_state.pwrStateResidencyTicks::UNDEFINED   2147483750                       # Cumulative time (in ticks) in various power states (Tick)
system.mem_ctrls8.power_state.pwrStateResidencyTicks::UNDEFINED   2147483750                       # Cumulative time (in ticks) in various power states (Tick)
system.mem_ctrls80.power_state.pwrStateResidencyTicks::UNDEFINED   2147483750                       # Cumulative time (in ticks) in various power states (Tick)
system.mem_ctrls81.power_state.pwrStateResidencyTicks::UNDEFINED   2147483750                       # Cumulative time (in ticks) in various power states (Tick)
system.mem_ctrls82.power_state.pwrStateResidencyTicks::UNDEFINED   2147483750                       # Cumulative time (in ticks) in various power states (Tick)
system.mem_ctrls83.power_state.pwrStateResidencyTicks::UNDEFINED   2147483750                       # Cumulative time (in ticks) in various power states (Tick)
system.mem_ctrls84.power_state.pwrStateResidencyTicks::UNDEFINED   2147483750                       # Cumulative time (in ticks) in various power states (Tick)
system.mem_ctrls85.power_state.pwrStateResidencyTicks::UNDEFINED   2147483750                       # Cumulative time (in ticks) in various power states (Tick)
system.mem_ctrls86.power_state.pwrStateResidencyTicks::UNDEFINED   2147483750                       # Cumulative time (in ticks) in various power states (Tick)
system.mem_ctrls87.power_state.pwrStateResidencyTicks::UNDEFINED   2147483750                       # Cumulative time (in ticks) in various power states (Tick)
system.mem_ctrls88.power_state.pwrStateResidencyTicks::UNDEFINED   2147483750                       # Cumulative time (in ticks) in various power states (Tick)
system.mem_ctrls89.power_state.pwrStateResidencyTicks::UNDEFINED   2147483750                       # Cumulative time (in ticks) in various power states (Tick)
system.mem_ctrls9.power_state.pwrStateResidencyTicks::UNDEFINED   2147483750                       # Cumulative time (in ticks) in various power states (Tick)
system.mem_ctrls90.power_state.pwrStateResidencyTicks::UNDEFINED   2147483750                       # Cumulative time (in ticks) in various power states (Tick)
system.mem_ctrls91.power_state.pwrStateResidencyTicks::UNDEFINED   2147483750                       # Cumulative time (in ticks) in various power states (Tick)
system.mem_ctrls92.power_state.pwrStateResidencyTicks::UNDEFINED   2147483750                       # Cumulative time (in ticks) in various power states (Tick)
system.mem_ctrls93.power_state.pwrStateResidencyTicks::UNDEFINED   2147483750                       # Cumulative time (in ticks) in various power states (Tick)
system.mem_ctrls94.power_state.pwrStateResidencyTicks::UNDEFINED   2147483750                       # Cumulative time (in ticks) in various power states (Tick)
system.mem_ctrls95.power_state.pwrStateResidencyTicks::UNDEFINED   2147483750                       # Cumulative time (in ticks) in various power states (Tick)
system.mem_ctrls96.power_state.pwrStateResidencyTicks::UNDEFINED   2147483750                       # Cumulative time (in ticks) in various power states (Tick)
system.mem_ctrls97.power_state.pwrStateResidencyTicks::UNDEFINED   2147483750                       # Cumulative time (in ticks) in various power states (Tick)
system.mem_ctrls98.power_state.pwrStateResidencyTicks::UNDEFINED   2147483750                       # Cumulative time (in ticks) in various power states (Tick)
system.mem_ctrls99.power_state.pwrStateResidencyTicks::UNDEFINED   2147483750                       # Cumulative time (in ticks) in various power states (Tick)
system.ruby.m_outstandReqHistSeqr::bucket_size            1                       (Unspecified)
system.ruby.m_outstandReqHistSeqr::max_bucket            9                       (Unspecified)
system.ruby.m_outstandReqHistSeqr::samples     39469342                       (Unspecified)
system.ruby.m_outstandReqHistSeqr::mean             1                       (Unspecified)
system.ruby.m_outstandReqHistSeqr::gmean            1                       (Unspecified)
system.ruby.m_outstandReqHistSeqr        |           0      0.00%      0.00% |    39469342    100.00%    100.00% |           0      0.00%    100.00% |           0      0.00%    100.00% |           0      0.00%    100.00% |           0      0.00%    100.00% |           0      0.00%    100.00% |           0      0.00%    100.00% |           0      0.00%    100.00% |           0      0.00%    100.00% (Unspecified)
system.ruby.m_outstandReqHistSeqr::total     39469342                       (Unspecified)
system.ruby.m_latencyHistSeqr::bucket_size            1                       (Unspecified)
system.ruby.m_latencyHistSeqr::max_bucket            9                       (Unspecified)
system.ruby.m_latencyHistSeqr::samples       39469338                       (Unspecified)
system.ruby.m_latencyHistSeqr::mean                 1                       (Unspecified)
system.ruby.m_latencyHistSeqr::gmean                1                       (Unspecified)
system.ruby.m_latencyHistSeqr            |           0      0.00%      0.00% |    39469338    100.00%    100.00% |           0      0.00%    100.00% |           0      0.00%    100.00% |           0      0.00%    100.00% |           0      0.00%    100.00% |           0      0.00%    100.00% |           0      0.00%    100.00% |           0      0.00%    100.00% |           0      0.00%    100.00% (Unspecified)
system.ruby.m_latencyHistSeqr::total         39469338                       (Unspecified)
system.ruby.m_hitLatencyHistSeqr::bucket_size            1                       (Unspecified)
system.ruby.m_hitLatencyHistSeqr::max_bucket            9                       (Unspecified)
system.ruby.m_hitLatencyHistSeqr::samples     39469338                       (Unspecified)
system.ruby.m_hitLatencyHistSeqr::mean              1                       (Unspecified)
system.ruby.m_hitLatencyHistSeqr::gmean             1                       (Unspecified)
system.ruby.m_hitLatencyHistSeqr         |           0      0.00%      0.00% |    39469338    100.00%    100.00% |           0      0.00%    100.00% |           0      0.00%    100.00% |           0      0.00%    100.00% |           0      0.00%    100.00% |           0      0.00%    100.00% |           0      0.00%    100.00% |           0      0.00%    100.00% |           0      0.00%    100.00% (Unspecified)
system.ruby.m_hitLatencyHistSeqr::total      39469338                       (Unspecified)
system.ruby.Directory_Controller.Receive_Request |      122619      0.62%      0.62% |      123239      0.62%      1.25% |      123269      0.62%      1.87% |      123283      0.62%      2.49% |      123726      0.63%      3.12% |      123235      0.62%      3.75% |      123439      0.63%      4.37% |      123620      0.63%      5.00% |      123893      0.63%      5.63% |      123235      0.62%      6.25% |      123406      0.63%      6.88% |      123209      0.62%      7.50% |      123433      0.63%      8.13% |      123322      0.62%      8.75% |      122836      0.62%      9.37% |      122964      0.62%     10.00% |      123317      0.62%     10.62% |      123707      0.63%     11.25% |      123232      0.62%     11.87% |      123612      0.63%     12.50% |      123893      0.63%     13.13% |      123660      0.63%     13.75% |      123414      0.63%     14.38% |      122768      0.62%     15.00% |      122942      0.62%     15.62% |      123855      0.63%     16.25% |      122948      0.62%     16.87% |      123942      0.63%     17.50% |      123448      0.63%     18.13% |      124108      0.63%     18.76% |      123376      0.63%     19.38% |      123419      0.63%     20.01% |      123834      0.63%     20.63% |      123382      0.63%     21.26% |      123267      0.62%     21.88% |      123336      0.62%     22.51% |      123277      0.62%     23.13% |      123275      0.62%     23.76% |      123514      0.63%     24.38% |      123091      0.62%     25.01% |      123312      0.62%     25.63% |      123260      0.62%     26.26% |      123098      0.62%     26.88% |      123661      0.63%     27.51% |      123001      0.62%     28.13% |      123610      0.63%     28.76% |      123209      0.62%     29.38% |      123068      0.62%     30.00% |      123295      0.62%     30.63% |      123447      0.63%     31.25% |      123857      0.63%     31.88% |      123357      0.63%     32.51% |      123114      0.62%     33.13% |      123317      0.62%     33.75% |      122886      0.62%     34.38% |      123404      0.63%     35.00% |      123028      0.62%     35.63% |      123381      0.63%     36.25% |      123310      0.62%     36.88% |      123555      0.63%     37.50% |      123608      0.63%     38.13% |      122632      0.62%     38.75% |      123470      0.63%     39.37% |      123394      0.63%     40.00% |      123060      0.62%     40.62% |      123264      0.62%     41.25% |      123737      0.63%     41.88% |      123155      0.62%     42.50% |      123018      0.62%     43.12% |      123291      0.62%     43.75% |      123191      0.62%     44.37% |      123701      0.63%     45.00% |      122971      0.62%     45.62% |      123189      0.62%     46.25% |      122983      0.62%     46.87% |      123809      0.63%     47.50% |      123938      0.63%     48.12% |      122687      0.62%     48.75% |      123170      0.62%     49.37% |      123121      0.62%     49.99% |      123240      0.62%     50.62% |      123031      0.62%     51.24% |      122824      0.62%     51.86% |      123515      0.63%     52.49% |      123020      0.62%     53.11% |      123730      0.63%     53.74% |      123191      0.62%     54.36% |      123713      0.63%     54.99% |      123714      0.63%     55.62% |      122837      0.62%     56.24% |      123824      0.63%     56.87% |      124055      0.63%     57.50% |      123206      0.62%     58.12% |      123700      0.63%     58.75% |      124175      0.63%     59.38% |      123655      0.63%     60.00% |      123718      0.63%     60.63% |      123300      0.62%     61.25% |      123224      0.62%     61.88% |      123441      0.63%     62.50% |      124081      0.63%     63.13% |      122898      0.62%     63.76% |      123338      0.62%     64.38% |      123095      0.62%     65.00% |      123006      0.62%     65.63% |      123264      0.62%     66.25% |      123528      0.63%     66.88% |      123466      0.63%     67.50% |      123365      0.63%     68.13% |      123197      0.62%     68.75% |      123236      0.62%     69.38% |      123517      0.63%     70.00% |      123955      0.63%     70.63% |      123203      0.62%     71.25% |      123834      0.63%     71.88% |      123285      0.62%     72.51% |      123803      0.63%     73.13% |      122809      0.62%     73.76% |      123688      0.63%     74.38% |      123008      0.62%     75.01% |      122397      0.62%     75.63% |      123343      0.62%     76.25% |      123204      0.62%     76.88% |      123809      0.63%     77.50% |      123537      0.63%     78.13% |      123271      0.62%     78.75% |      123021      0.62%     79.38% |      123308      0.62%     80.00% |      123400      0.63%     80.63% |      123376      0.63%     81.25% |      123025      0.62%     81.88% |      123466      0.63%     82.50% |      123216      0.62%     83.13% |      123676      0.63%     83.75% |      123463      0.63%     84.38% |      123318      0.62%     85.00% |      122636      0.62%     85.62% |      122924      0.62%     86.25% |      123209      0.62%     86.87% |      123677      0.63%     87.50% |      123310      0.62%     88.12% |      123280      0.62%     88.75% |      123149      0.62%     89.37% |      123355      0.63%     90.00% |      122646      0.62%     90.62% |      123402      0.63%     91.24% |      123546      0.63%     91.87% |      123189      0.62%     92.49% |      123114      0.62%     93.12% |      123576      0.63%     93.74% |      123545      0.63%     94.37% |      123260      0.62%     94.99% |      123537      0.63%     95.62% |      123719      0.63%     96.25% |      123486      0.63%     96.87% |      123724      0.63%     97.50% |      123693      0.63%     98.13% |      122975      0.62%     98.75% |      123948      0.63%     99.38% |      123129      0.62%    100.00% (Unspecified)
system.ruby.Directory_Controller.Receive_Request::total     19736452                       (Unspecified)
system.ruby.Directory_Controller.Receive_Response |      107407      0.63%      0.63% |      107433      0.63%      1.25% |      107809      0.63%      1.88% |      107225      0.62%      2.50% |      106934      0.62%      3.12% |      107349      0.62%      3.75% |      107326      0.62%      4.37% |      107597      0.63%      5.00% |      107676      0.63%      5.63% |      107533      0.63%      6.25% |      107347      0.62%      6.88% |      107745      0.63%      7.50% |      106906      0.62%      8.13% |      107165      0.62%      8.75% |      107033      0.62%      9.37% |      106714      0.62%      9.99% |      106879      0.62%     10.62% |      106844      0.62%     11.24% |      107240      0.62%     11.86% |      106821      0.62%     12.48% |      106867      0.62%     13.11% |      107889      0.63%     13.73% |      107384      0.62%     14.36% |      107466      0.63%     14.98% |      107296      0.62%     15.61% |      107171      0.62%     16.23% |      107650      0.63%     16.86% |      107543      0.63%     17.48% |      106816      0.62%     18.11% |      107161      0.62%     18.73% |      107647      0.63%     19.36% |      107307      0.62%     19.98% |      107091      0.62%     20.60% |      107674      0.63%     21.23% |      107824      0.63%     21.86% |      107294      0.62%     22.48% |      107587      0.63%     23.11% |      107570      0.63%     23.74% |      107238      0.62%     24.36% |      107467      0.63%     24.99% |      107512      0.63%     25.61% |      107165      0.62%     26.23% |      107098      0.62%     26.86% |      107390      0.63%     27.48% |      107528      0.63%     28.11% |      107756      0.63%     28.74% |      107234      0.62%     29.36% |      107888      0.63%     29.99% |      107718      0.63%     30.61% |      106924      0.62%     31.24% |      107378      0.62%     31.86% |      107154      0.62%     32.49% |      107295      0.62%     33.11% |      107836      0.63%     33.74% |      107389      0.63%     34.36% |      107356      0.62%     34.99% |      107102      0.62%     35.61% |      107113      0.62%     36.23% |      107882      0.63%     36.86% |      107589      0.63%     37.49% |      107114      0.62%     38.11% |      107284      0.62%     38.74% |      107587      0.63%     39.36% |      107910      0.63%     39.99% |      106906      0.62%     40.61% |      107120      0.62%     41.24% |      107847      0.63%     41.86% |      106762      0.62%     42.49% |      107151      0.62%     43.11% |      107093      0.62%     43.73% |      107294      0.62%     44.36% |      107262      0.62%     44.98% |      107172      0.62%     45.60% |      106625      0.62%     46.23% |      107683      0.63%     46.85% |      107233      0.62%     47.48% |      107250      0.62%     48.10% |      107440      0.63%     48.73% |      107615      0.63%     49.35% |      107006      0.62%     49.97% |      107871      0.63%     50.60% |      107910      0.63%     51.23% |      107123      0.62%     51.85% |      107167      0.62%     52.48% |      107092      0.62%     53.10% |      107371      0.62%     53.73% |      107471      0.63%     54.35% |      107643      0.63%     54.98% |      107322      0.62%     55.60% |      107355      0.62%     56.23% |      106431      0.62%     56.85% |      107229      0.62%     57.47% |      107597      0.63%     58.10% |      107727      0.63%     58.72% |      107568      0.63%     59.35% |      106990      0.62%     59.97% |      107515      0.63%     60.60% |      107679      0.63%     61.23% |      107643      0.63%     61.85% |      107520      0.63%     62.48% |      107757      0.63%     63.10% |      107709      0.63%     63.73% |      107536      0.63%     64.36% |      107230      0.62%     64.98% |      107034      0.62%     65.60% |      108312      0.63%     66.23% |      107416      0.63%     66.86% |      107088      0.62%     67.48% |      106988      0.62%     68.11% |      106894      0.62%     68.73% |      107538      0.63%     69.35% |      107313      0.62%     69.98% |      108153      0.63%     70.61% |      107818      0.63%     71.24% |      107454      0.63%     71.86% |      107942      0.63%     72.49% |      107834      0.63%     73.12% |      107386      0.62%     73.74% |      107317      0.62%     74.37% |      107389      0.63%     74.99% |      107624      0.63%     75.62% |      107360      0.62%     76.24% |      107162      0.62%     76.87% |      107433      0.63%     77.49% |      106918      0.62%     78.11% |      107056      0.62%     78.74% |      107179      0.62%     79.36% |      107499      0.63%     79.99% |      107486      0.63%     80.61% |      107266      0.62%     81.24% |      107502      0.63%     81.86% |      107206      0.62%     82.49% |      107268      0.62%     83.11% |      107710      0.63%     83.74% |      107071      0.62%     84.36% |      107064      0.62%     84.98% |      107858      0.63%     85.61% |      107336      0.62%     86.24% |      107613      0.63%     86.86% |      107763      0.63%     87.49% |      107509      0.63%     88.11% |      107042      0.62%     88.74% |      107436      0.63%     89.36% |      107860      0.63%     89.99% |      107461      0.63%     90.62% |      107732      0.63%     91.24% |      107378      0.62%     91.87% |      107697      0.63%     92.50% |      107057      0.62%     93.12% |      107392      0.63%     93.74% |      107435      0.63%     94.37% |      107337      0.62%     94.99% |      107457      0.63%     95.62% |      107537      0.63%     96.24% |      107417      0.63%     96.87% |      107629      0.63%     97.50% |      107383      0.62%     98.12% |      107422      0.63%     98.75% |      108077      0.63%     99.38% |      107341      0.62%    100.00% (Unspecified)
system.ruby.Directory_Controller.Receive_Response::total     17181891                       (Unspecified)
system.ruby.Directory_Controller.I.Receive_Request |      122619      0.62%      0.62% |      123239      0.62%      1.25% |      123269      0.62%      1.87% |      123283      0.62%      2.49% |      123726      0.63%      3.12% |      123235      0.62%      3.75% |      123439      0.63%      4.37% |      123620      0.63%      5.00% |      123893      0.63%      5.63% |      123235      0.62%      6.25% |      123406      0.63%      6.88% |      123209      0.62%      7.50% |      123433      0.63%      8.13% |      123322      0.62%      8.75% |      122836      0.62%      9.37% |      122964      0.62%     10.00% |      123317      0.62%     10.62% |      123707      0.63%     11.25% |      123232      0.62%     11.87% |      123612      0.63%     12.50% |      123893      0.63%     13.13% |      123660      0.63%     13.75% |      123414      0.63%     14.38% |      122768      0.62%     15.00% |      122942      0.62%     15.62% |      123855      0.63%     16.25% |      122948      0.62%     16.87% |      123942      0.63%     17.50% |      123448      0.63%     18.13% |      124108      0.63%     18.76% |      123376      0.63%     19.38% |      123419      0.63%     20.01% |      123834      0.63%     20.63% |      123382      0.63%     21.26% |      123267      0.62%     21.88% |      123336      0.62%     22.51% |      123277      0.62%     23.13% |      123275      0.62%     23.76% |      123514      0.63%     24.38% |      123091      0.62%     25.01% |      123312      0.62%     25.63% |      123260      0.62%     26.26% |      123098      0.62%     26.88% |      123661      0.63%     27.51% |      123001      0.62%     28.13% |      123610      0.63%     28.76% |      123209      0.62%     29.38% |      123068      0.62%     30.00% |      123295      0.62%     30.63% |      123447      0.63%     31.25% |      123857      0.63%     31.88% |      123357      0.63%     32.51% |      123114      0.62%     33.13% |      123317      0.62%     33.75% |      122886      0.62%     34.38% |      123404      0.63%     35.00% |      123028      0.62%     35.63% |      123381      0.63%     36.25% |      123310      0.62%     36.88% |      123555      0.63%     37.50% |      123608      0.63%     38.13% |      122632      0.62%     38.75% |      123470      0.63%     39.37% |      123394      0.63%     40.00% |      123060      0.62%     40.62% |      123264      0.62%     41.25% |      123737      0.63%     41.88% |      123155      0.62%     42.50% |      123018      0.62%     43.12% |      123291      0.62%     43.75% |      123191      0.62%     44.37% |      123701      0.63%     45.00% |      122971      0.62%     45.62% |      123189      0.62%     46.25% |      122983      0.62%     46.87% |      123809      0.63%     47.50% |      123938      0.63%     48.12% |      122687      0.62%     48.75% |      123170      0.62%     49.37% |      123121      0.62%     49.99% |      123240      0.62%     50.62% |      123031      0.62%     51.24% |      122824      0.62%     51.86% |      123515      0.63%     52.49% |      123020      0.62%     53.11% |      123730      0.63%     53.74% |      123191      0.62%     54.36% |      123713      0.63%     54.99% |      123714      0.63%     55.62% |      122837      0.62%     56.24% |      123824      0.63%     56.87% |      124055      0.63%     57.50% |      123206      0.62%     58.12% |      123700      0.63%     58.75% |      124175      0.63%     59.38% |      123655      0.63%     60.00% |      123718      0.63%     60.63% |      123300      0.62%     61.25% |      123224      0.62%     61.88% |      123441      0.63%     62.50% |      124081      0.63%     63.13% |      122898      0.62%     63.76% |      123338      0.62%     64.38% |      123095      0.62%     65.00% |      123006      0.62%     65.63% |      123264      0.62%     66.25% |      123528      0.63%     66.88% |      123466      0.63%     67.50% |      123365      0.63%     68.13% |      123197      0.62%     68.75% |      123236      0.62%     69.38% |      123517      0.63%     70.00% |      123955      0.63%     70.63% |      123203      0.62%     71.25% |      123834      0.63%     71.88% |      123285      0.62%     72.51% |      123803      0.63%     73.13% |      122809      0.62%     73.76% |      123688      0.63%     74.38% |      123008      0.62%     75.01% |      122397      0.62%     75.63% |      123343      0.62%     76.25% |      123204      0.62%     76.88% |      123809      0.63%     77.50% |      123537      0.63%     78.13% |      123271      0.62%     78.75% |      123021      0.62%     79.38% |      123308      0.62%     80.00% |      123400      0.63%     80.63% |      123376      0.63%     81.25% |      123025      0.62%     81.88% |      123466      0.63%     82.50% |      123216      0.62%     83.13% |      123676      0.63%     83.75% |      123463      0.63%     84.38% |      123318      0.62%     85.00% |      122636      0.62%     85.62% |      122924      0.62%     86.25% |      123209      0.62%     86.87% |      123677      0.63%     87.50% |      123310      0.62%     88.12% |      123280      0.62%     88.75% |      123149      0.62%     89.37% |      123355      0.63%     90.00% |      122646      0.62%     90.62% |      123402      0.63%     91.24% |      123546      0.63%     91.87% |      123189      0.62%     92.49% |      123114      0.62%     93.12% |      123576      0.63%     93.74% |      123545      0.63%     94.37% |      123260      0.62%     94.99% |      123537      0.63%     95.62% |      123719      0.63%     96.25% |      123486      0.63%     96.87% |      123724      0.63%     97.50% |      123693      0.63%     98.13% |      122975      0.62%     98.75% |      123948      0.63%     99.38% |      123129      0.62%    100.00% (Unspecified)
system.ruby.Directory_Controller.I.Receive_Request::total     19736452                       (Unspecified)
system.ruby.Directory_Controller.I.Receive_Response |      107407      0.63%      0.63% |      107433      0.63%      1.25% |      107809      0.63%      1.88% |      107225      0.62%      2.50% |      106934      0.62%      3.12% |      107349      0.62%      3.75% |      107326      0.62%      4.37% |      107597      0.63%      5.00% |      107676      0.63%      5.63% |      107533      0.63%      6.25% |      107347      0.62%      6.88% |      107745      0.63%      7.50% |      106906      0.62%      8.13% |      107165      0.62%      8.75% |      107033      0.62%      9.37% |      106714      0.62%      9.99% |      106879      0.62%     10.62% |      106844      0.62%     11.24% |      107240      0.62%     11.86% |      106821      0.62%     12.48% |      106867      0.62%     13.11% |      107889      0.63%     13.73% |      107384      0.62%     14.36% |      107466      0.63%     14.98% |      107296      0.62%     15.61% |      107171      0.62%     16.23% |      107650      0.63%     16.86% |      107543      0.63%     17.48% |      106816      0.62%     18.11% |      107161      0.62%     18.73% |      107647      0.63%     19.36% |      107307      0.62%     19.98% |      107091      0.62%     20.60% |      107674      0.63%     21.23% |      107824      0.63%     21.86% |      107294      0.62%     22.48% |      107587      0.63%     23.11% |      107570      0.63%     23.74% |      107238      0.62%     24.36% |      107467      0.63%     24.99% |      107512      0.63%     25.61% |      107165      0.62%     26.23% |      107098      0.62%     26.86% |      107390      0.63%     27.48% |      107528      0.63%     28.11% |      107756      0.63%     28.74% |      107234      0.62%     29.36% |      107888      0.63%     29.99% |      107718      0.63%     30.61% |      106924      0.62%     31.24% |      107378      0.62%     31.86% |      107154      0.62%     32.49% |      107295      0.62%     33.11% |      107836      0.63%     33.74% |      107389      0.63%     34.36% |      107356      0.62%     34.99% |      107102      0.62%     35.61% |      107113      0.62%     36.23% |      107882      0.63%     36.86% |      107589      0.63%     37.49% |      107114      0.62%     38.11% |      107284      0.62%     38.74% |      107587      0.63%     39.36% |      107910      0.63%     39.99% |      106906      0.62%     40.61% |      107120      0.62%     41.24% |      107847      0.63%     41.86% |      106762      0.62%     42.49% |      107151      0.62%     43.11% |      107093      0.62%     43.73% |      107294      0.62%     44.36% |      107262      0.62%     44.98% |      107172      0.62%     45.60% |      106625      0.62%     46.23% |      107683      0.63%     46.85% |      107233      0.62%     47.48% |      107250      0.62%     48.10% |      107440      0.63%     48.73% |      107615      0.63%     49.35% |      107006      0.62%     49.97% |      107871      0.63%     50.60% |      107910      0.63%     51.23% |      107123      0.62%     51.85% |      107167      0.62%     52.48% |      107092      0.62%     53.10% |      107371      0.62%     53.73% |      107471      0.63%     54.35% |      107643      0.63%     54.98% |      107322      0.62%     55.60% |      107355      0.62%     56.23% |      106431      0.62%     56.85% |      107229      0.62%     57.47% |      107597      0.63%     58.10% |      107727      0.63%     58.72% |      107568      0.63%     59.35% |      106990      0.62%     59.97% |      107515      0.63%     60.60% |      107679      0.63%     61.23% |      107643      0.63%     61.85% |      107520      0.63%     62.48% |      107757      0.63%     63.10% |      107709      0.63%     63.73% |      107536      0.63%     64.36% |      107230      0.62%     64.98% |      107034      0.62%     65.60% |      108312      0.63%     66.23% |      107416      0.63%     66.86% |      107088      0.62%     67.48% |      106988      0.62%     68.11% |      106894      0.62%     68.73% |      107538      0.63%     69.35% |      107313      0.62%     69.98% |      108153      0.63%     70.61% |      107818      0.63%     71.24% |      107454      0.63%     71.86% |      107942      0.63%     72.49% |      107834      0.63%     73.12% |      107386      0.62%     73.74% |      107317      0.62%     74.37% |      107389      0.63%     74.99% |      107624      0.63%     75.62% |      107360      0.62%     76.24% |      107162      0.62%     76.87% |      107433      0.63%     77.49% |      106918      0.62%     78.11% |      107056      0.62%     78.74% |      107179      0.62%     79.36% |      107499      0.63%     79.99% |      107486      0.63%     80.61% |      107266      0.62%     81.24% |      107502      0.63%     81.86% |      107206      0.62%     82.49% |      107268      0.62%     83.11% |      107710      0.63%     83.74% |      107071      0.62%     84.36% |      107064      0.62%     84.98% |      107858      0.63%     85.61% |      107336      0.62%     86.24% |      107613      0.63%     86.86% |      107763      0.63%     87.49% |      107509      0.63%     88.11% |      107042      0.62%     88.74% |      107436      0.63%     89.36% |      107860      0.63%     89.99% |      107461      0.63%     90.62% |      107732      0.63%     91.24% |      107378      0.62%     91.87% |      107697      0.63%     92.50% |      107057      0.62%     93.12% |      107392      0.63%     93.74% |      107435      0.63%     94.37% |      107337      0.62%     94.99% |      107457      0.63%     95.62% |      107537      0.63%     96.24% |      107417      0.63%     96.87% |      107629      0.63%     97.50% |      107383      0.62%     98.12% |      107422      0.63%     98.75% |      108077      0.63%     99.38% |      107341      0.62%    100.00% (Unspecified)
system.ruby.Directory_Controller.I.Receive_Response::total     17181891                       (Unspecified)
system.ruby.L1Cache_Controller.Request   |      493288      2.50%      2.50% |      492999      2.50%      5.00% |      493012      2.50%      7.50% |      493056      2.50%      9.99% |      493240      2.50%     12.49% |      493101      2.50%     14.99% |      493071      2.50%     17.49% |      493090      2.50%     19.99% |      494613      2.51%     22.49% |      493153      2.50%     24.99% |      493677      2.50%     27.49% |      492723      2.50%     29.99% |      493235      2.50%     32.49% |      493881      2.50%     34.99% |      493213      2.50%     37.49% |      493639      2.50%     39.99% |      494062      2.50%     42.50% |      494136      2.50%     45.00% |      493932      2.50%     47.50% |      492588      2.50%     50.00% |      492860      2.50%     52.49% |      492586      2.50%     54.99% |      494580      2.51%     57.50% |      493897      2.50%     60.00% |      492865      2.50%     62.50% |      493373      2.50%     65.00% |      494037      2.50%     67.50% |      493547      2.50%     70.00% |      492958      2.50%     72.50% |      494900      2.51%     75.00% |      493611      2.50%     77.51% |      492664      2.50%     80.00% |      494717      2.51%     82.51% |      493275      2.50%     85.01% |      493263      2.50%     87.51% |      493371      2.50%     90.01% |      493567      2.50%     92.51% |      492541      2.50%     95.00% |      494517      2.51%     97.51% |      491669      2.49%    100.00% (Unspecified)
system.ruby.L1Cache_Controller.Request::total     19736507                       (Unspecified)
system.ruby.L1Cache_Controller.Response  |      493318      2.50%      2.50% |      492515      2.50%      5.00% |      492939      2.50%      7.49% |      493492      2.50%      9.99% |      492941      2.50%     12.49% |      492315      2.49%     14.99% |      493615      2.50%     17.49% |      493224      2.50%     19.99% |      492343      2.50%     22.48% |      494503      2.51%     24.99% |      493451      2.50%     27.49% |      494533      2.51%     30.00% |      494054      2.50%     32.50% |      492713      2.50%     35.00% |      494031      2.50%     37.50% |      493549      2.50%     40.00% |      492989      2.50%     42.50% |      492595      2.50%     45.00% |      493321      2.50%     47.50% |      493323      2.50%     50.00% |      493261      2.50%     52.50% |      491890      2.49%     54.99% |      492471      2.50%     57.48% |      493353      2.50%     59.99% |      492160      2.49%     62.48% |      493851      2.50%     64.98% |      492980      2.50%     67.48% |      492754      2.50%     69.98% |      493493      2.50%     72.48% |      494065      2.50%     74.98% |      493137      2.50%     77.48% |      494412      2.51%     79.99% |      493458      2.50%     82.49% |      494238      2.50%     84.99% |      493992      2.50%     87.50% |      493326      2.50%     90.00% |      493273      2.50%     92.49% |      493556      2.50%     95.00% |      493167      2.50%     97.50% |      494230      2.50%    100.00% (Unspecified)
system.ruby.L1Cache_Controller.Response::total     19732831                       (Unspecified)
system.ruby.L1Cache_Controller.I.Request |      493288      2.50%      2.50% |      492999      2.50%      5.00% |      493012      2.50%      7.50% |      493056      2.50%      9.99% |      493240      2.50%     12.49% |      493101      2.50%     14.99% |      493071      2.50%     17.49% |      493090      2.50%     19.99% |      494613      2.51%     22.49% |      493153      2.50%     24.99% |      493677      2.50%     27.49% |      492723      2.50%     29.99% |      493235      2.50%     32.49% |      493881      2.50%     34.99% |      493213      2.50%     37.49% |      493639      2.50%     39.99% |      494062      2.50%     42.50% |      494136      2.50%     45.00% |      493932      2.50%     47.50% |      492588      2.50%     50.00% |      492860      2.50%     52.49% |      492586      2.50%     54.99% |      494580      2.51%     57.50% |      493897      2.50%     60.00% |      492865      2.50%     62.50% |      493373      2.50%     65.00% |      494037      2.50%     67.50% |      493547      2.50%     70.00% |      492958      2.50%     72.50% |      494900      2.51%     75.00% |      493611      2.50%     77.51% |      492664      2.50%     80.00% |      494717      2.51%     82.51% |      493275      2.50%     85.01% |      493263      2.50%     87.51% |      493371      2.50%     90.01% |      493567      2.50%     92.51% |      492541      2.50%     95.00% |      494517      2.51%     97.51% |      491669      2.49%    100.00% (Unspecified)
system.ruby.L1Cache_Controller.I.Request::total     19736507                       (Unspecified)
system.ruby.L1Cache_Controller.I.Response |      493318      2.50%      2.50% |      492515      2.50%      5.00% |      492939      2.50%      7.49% |      493492      2.50%      9.99% |      492941      2.50%     12.49% |      492315      2.49%     14.99% |      493615      2.50%     17.49% |      493224      2.50%     19.99% |      492343      2.50%     22.48% |      494503      2.51%     24.99% |      493451      2.50%     27.49% |      494533      2.51%     30.00% |      494054      2.50%     32.50% |      492713      2.50%     35.00% |      494031      2.50%     37.50% |      493549      2.50%     40.00% |      492989      2.50%     42.50% |      492595      2.50%     45.00% |      493321      2.50%     47.50% |      493323      2.50%     50.00% |      493261      2.50%     52.50% |      491890      2.49%     54.99% |      492471      2.50%     57.48% |      493353      2.50%     59.99% |      492160      2.49%     62.48% |      493851      2.50%     64.98% |      492980      2.50%     67.48% |      492754      2.50%     69.98% |      493493      2.50%     72.48% |      494065      2.50%     74.98% |      493137      2.50%     77.48% |      494412      2.51%     79.99% |      493458      2.50%     82.49% |      494238      2.50%     84.99% |      493992      2.50%     87.50% |      493326      2.50%     90.00% |      493273      2.50%     92.49% |      493556      2.50%     95.00% |      493167      2.50%     97.50% |      494230      2.50%    100.00% (Unspecified)
system.ruby.L1Cache_Controller.I.Response::total     19732831                       (Unspecified)
system.ruby.RequestType.LD.latency_hist_seqr::bucket_size            1                       (Unspecified)
system.ruby.RequestType.LD.latency_hist_seqr::max_bucket            9                       (Unspecified)
system.ruby.RequestType.LD.latency_hist_seqr::samples     19736507                       (Unspecified)
system.ruby.RequestType.LD.latency_hist_seqr::mean            1                       (Unspecified)
system.ruby.RequestType.LD.latency_hist_seqr::gmean            1                       (Unspecified)
system.ruby.RequestType.LD.latency_hist_seqr |           0      0.00%      0.00% |    19736507    100.00%    100.00% |           0      0.00%    100.00% |           0      0.00%    100.00% |           0      0.00%    100.00% |           0      0.00%    100.00% |           0      0.00%    100.00% |           0      0.00%    100.00% |           0      0.00%    100.00% |           0      0.00%    100.00% (Unspecified)
system.ruby.RequestType.LD.latency_hist_seqr::total     19736507                       (Unspecified)
system.ruby.RequestType.LD.hit_latency_hist_seqr::bucket_size            1                       (Unspecified)
system.ruby.RequestType.LD.hit_latency_hist_seqr::max_bucket            9                       (Unspecified)
system.ruby.RequestType.LD.hit_latency_hist_seqr::samples     19736507                       (Unspecified)
system.ruby.RequestType.LD.hit_latency_hist_seqr::mean            1                       (Unspecified)
system.ruby.RequestType.LD.hit_latency_hist_seqr::gmean            1                       (Unspecified)
system.ruby.RequestType.LD.hit_latency_hist_seqr |           0      0.00%      0.00% |    19736507    100.00%    100.00% |           0      0.00%    100.00% |           0      0.00%    100.00% |           0      0.00%    100.00% |           0      0.00%    100.00% |           0      0.00%    100.00% |           0      0.00%    100.00% |           0      0.00%    100.00% |           0      0.00%    100.00% (Unspecified)
system.ruby.RequestType.LD.hit_latency_hist_seqr::total     19736507                       (Unspecified)
system.ruby.RequestType.ST.latency_hist_seqr::bucket_size            1                       (Unspecified)
system.ruby.RequestType.ST.latency_hist_seqr::max_bucket            9                       (Unspecified)
system.ruby.RequestType.ST.latency_hist_seqr::samples     19732831                       (Unspecified)
system.ruby.RequestType.ST.latency_hist_seqr::mean            1                       (Unspecified)
system.ruby.RequestType.ST.latency_hist_seqr::gmean            1                       (Unspecified)
system.ruby.RequestType.ST.latency_hist_seqr |           0      0.00%      0.00% |    19732831    100.00%    100.00% |           0      0.00%    100.00% |           0      0.00%    100.00% |           0      0.00%    100.00% |           0      0.00%    100.00% |           0      0.00%    100.00% |           0      0.00%    100.00% |           0      0.00%    100.00% |           0      0.00%    100.00% (Unspecified)
system.ruby.RequestType.ST.latency_hist_seqr::total     19732831                       (Unspecified)
system.ruby.RequestType.ST.hit_latency_hist_seqr::bucket_size            1                       (Unspecified)
system.ruby.RequestType.ST.hit_latency_hist_seqr::max_bucket            9                       (Unspecified)
system.ruby.RequestType.ST.hit_latency_hist_seqr::samples     19732831                       (Unspecified)
system.ruby.RequestType.ST.hit_latency_hist_seqr::mean            1                       (Unspecified)
system.ruby.RequestType.ST.hit_latency_hist_seqr::gmean            1                       (Unspecified)
system.ruby.RequestType.ST.hit_latency_hist_seqr |           0      0.00%      0.00% |    19732831    100.00%    100.00% |           0      0.00%    100.00% |           0      0.00%    100.00% |           0      0.00%    100.00% |           0      0.00%    100.00% |           0      0.00%    100.00% |           0      0.00%    100.00% |           0      0.00%    100.00% |           0      0.00%    100.00% (Unspecified)
system.ruby.RequestType.ST.hit_latency_hist_seqr::total     19732831                       (Unspecified)
system.ruby.clk_domain.clock                      250                       # Clock period in ticks (Tick)
system.ruby.dir_cntrl0.power_state.pwrStateResidencyTicks::UNDEFINED   2147483750                       # Cumulative time (in ticks) in various power states (Tick)
system.ruby.dir_cntrl0.requestToDir.m_msg_count       122619                       # Number of messages passed the buffer (Count)
system.ruby.dir_cntrl0.requestToDir.m_buf_msgs     0.014275                       # Average number of messages in buffer ((Count/Tick))
system.ruby.dir_cntrl0.responseToDir.m_msg_count       107407                       # Number of messages passed the buffer (Count)
system.ruby.dir_cntrl0.responseToDir.m_buf_msgs     0.012504                       # Average number of messages in buffer ((Count/Tick))
system.ruby.dir_cntrl1.power_state.pwrStateResidencyTicks::UNDEFINED   2147483750                       # Cumulative time (in ticks) in various power states (Tick)
system.ruby.dir_cntrl1.requestToDir.m_msg_count       123239                       # Number of messages passed the buffer (Count)
system.ruby.dir_cntrl1.requestToDir.m_buf_msgs     0.014347                       # Average number of messages in buffer ((Count/Tick))
system.ruby.dir_cntrl1.responseToDir.m_msg_count       107433                       # Number of messages passed the buffer (Count)
system.ruby.dir_cntrl1.responseToDir.m_buf_msgs     0.012507                       # Average number of messages in buffer ((Count/Tick))
system.ruby.dir_cntrl10.power_state.pwrStateResidencyTicks::UNDEFINED   2147483750                       # Cumulative time (in ticks) in various power states (Tick)
system.ruby.dir_cntrl10.requestToDir.m_msg_count       123406                       # Number of messages passed the buffer (Count)
system.ruby.dir_cntrl10.requestToDir.m_buf_msgs     0.014366                       # Average number of messages in buffer ((Count/Tick))
system.ruby.dir_cntrl10.responseToDir.m_msg_count       107347                       # Number of messages passed the buffer (Count)
system.ruby.dir_cntrl10.responseToDir.m_buf_msgs     0.012497                       # Average number of messages in buffer ((Count/Tick))
system.ruby.dir_cntrl100.power_state.pwrStateResidencyTicks::UNDEFINED   2147483750                       # Cumulative time (in ticks) in various power states (Tick)
system.ruby.dir_cntrl100.requestToDir.m_msg_count       124081                       # Number of messages passed the buffer (Count)
system.ruby.dir_cntrl100.requestToDir.m_buf_msgs     0.014445                       # Average number of messages in buffer ((Count/Tick))
system.ruby.dir_cntrl100.responseToDir.m_msg_count       107757                       # Number of messages passed the buffer (Count)
system.ruby.dir_cntrl100.responseToDir.m_buf_msgs     0.012545                       # Average number of messages in buffer ((Count/Tick))
system.ruby.dir_cntrl101.power_state.pwrStateResidencyTicks::UNDEFINED   2147483750                       # Cumulative time (in ticks) in various power states (Tick)
system.ruby.dir_cntrl101.requestToDir.m_msg_count       122898                       # Number of messages passed the buffer (Count)
system.ruby.dir_cntrl101.requestToDir.m_buf_msgs     0.014307                       # Average number of messages in buffer ((Count/Tick))
system.ruby.dir_cntrl101.responseToDir.m_msg_count       107709                       # Number of messages passed the buffer (Count)
system.ruby.dir_cntrl101.responseToDir.m_buf_msgs     0.012539                       # Average number of messages in buffer ((Count/Tick))
system.ruby.dir_cntrl102.power_state.pwrStateResidencyTicks::UNDEFINED   2147483750                       # Cumulative time (in ticks) in various power states (Tick)
system.ruby.dir_cntrl102.requestToDir.m_msg_count       123338                       # Number of messages passed the buffer (Count)
system.ruby.dir_cntrl102.requestToDir.m_buf_msgs     0.014358                       # Average number of messages in buffer ((Count/Tick))
system.ruby.dir_cntrl102.responseToDir.m_msg_count       107536                       # Number of messages passed the buffer (Count)
system.ruby.dir_cntrl102.responseToDir.m_buf_msgs     0.012519                       # Average number of messages in buffer ((Count/Tick))
system.ruby.dir_cntrl103.power_state.pwrStateResidencyTicks::UNDEFINED   2147483750                       # Cumulative time (in ticks) in various power states (Tick)
system.ruby.dir_cntrl103.requestToDir.m_msg_count       123095                       # Number of messages passed the buffer (Count)
system.ruby.dir_cntrl103.requestToDir.m_buf_msgs     0.014330                       # Average number of messages in buffer ((Count/Tick))
system.ruby.dir_cntrl103.responseToDir.m_msg_count       107230                       # Number of messages passed the buffer (Count)
system.ruby.dir_cntrl103.responseToDir.m_buf_msgs     0.012483                       # Average number of messages in buffer ((Count/Tick))
system.ruby.dir_cntrl104.power_state.pwrStateResidencyTicks::UNDEFINED   2147483750                       # Cumulative time (in ticks) in various power states (Tick)
system.ruby.dir_cntrl104.requestToDir.m_msg_count       123006                       # Number of messages passed the buffer (Count)
system.ruby.dir_cntrl104.requestToDir.m_buf_msgs     0.014320                       # Average number of messages in buffer ((Count/Tick))
system.ruby.dir_cntrl104.responseToDir.m_msg_count       107034                       # Number of messages passed the buffer (Count)
system.ruby.dir_cntrl104.responseToDir.m_buf_msgs     0.012460                       # Average number of messages in buffer ((Count/Tick))
system.ruby.dir_cntrl105.power_state.pwrStateResidencyTicks::UNDEFINED   2147483750                       # Cumulative time (in ticks) in various power states (Tick)
system.ruby.dir_cntrl105.requestToDir.m_msg_count       123264                       # Number of messages passed the buffer (Count)
system.ruby.dir_cntrl105.requestToDir.m_buf_msgs     0.014350                       # Average number of messages in buffer ((Count/Tick))
system.ruby.dir_cntrl105.responseToDir.m_msg_count       108312                       # Number of messages passed the buffer (Count)
system.ruby.dir_cntrl105.responseToDir.m_buf_msgs     0.012609                       # Average number of messages in buffer ((Count/Tick))
system.ruby.dir_cntrl106.power_state.pwrStateResidencyTicks::UNDEFINED   2147483750                       # Cumulative time (in ticks) in various power states (Tick)
system.ruby.dir_cntrl106.requestToDir.m_msg_count       123528                       # Number of messages passed the buffer (Count)
system.ruby.dir_cntrl106.requestToDir.m_buf_msgs     0.014381                       # Average number of messages in buffer ((Count/Tick))
system.ruby.dir_cntrl106.responseToDir.m_msg_count       107416                       # Number of messages passed the buffer (Count)
system.ruby.dir_cntrl106.responseToDir.m_buf_msgs     0.012505                       # Average number of messages in buffer ((Count/Tick))
system.ruby.dir_cntrl107.power_state.pwrStateResidencyTicks::UNDEFINED   2147483750                       # Cumulative time (in ticks) in various power states (Tick)
system.ruby.dir_cntrl107.requestToDir.m_msg_count       123466                       # Number of messages passed the buffer (Count)
system.ruby.dir_cntrl107.requestToDir.m_buf_msgs     0.014373                       # Average number of messages in buffer ((Count/Tick))
system.ruby.dir_cntrl107.responseToDir.m_msg_count       107088                       # Number of messages passed the buffer (Count)
system.ruby.dir_cntrl107.responseToDir.m_buf_msgs     0.012467                       # Average number of messages in buffer ((Count/Tick))
system.ruby.dir_cntrl108.power_state.pwrStateResidencyTicks::UNDEFINED   2147483750                       # Cumulative time (in ticks) in various power states (Tick)
system.ruby.dir_cntrl108.requestToDir.m_msg_count       123365                       # Number of messages passed the buffer (Count)
system.ruby.dir_cntrl108.requestToDir.m_buf_msgs     0.014362                       # Average number of messages in buffer ((Count/Tick))
system.ruby.dir_cntrl108.responseToDir.m_msg_count       106988                       # Number of messages passed the buffer (Count)
system.ruby.dir_cntrl108.responseToDir.m_buf_msgs     0.012455                       # Average number of messages in buffer ((Count/Tick))
system.ruby.dir_cntrl109.power_state.pwrStateResidencyTicks::UNDEFINED   2147483750                       # Cumulative time (in ticks) in various power states (Tick)
system.ruby.dir_cntrl109.requestToDir.m_msg_count       123197                       # Number of messages passed the buffer (Count)
system.ruby.dir_cntrl109.requestToDir.m_buf_msgs     0.014342                       # Average number of messages in buffer ((Count/Tick))
system.ruby.dir_cntrl109.responseToDir.m_msg_count       106894                       # Number of messages passed the buffer (Count)
system.ruby.dir_cntrl109.responseToDir.m_buf_msgs     0.012444                       # Average number of messages in buffer ((Count/Tick))
system.ruby.dir_cntrl11.power_state.pwrStateResidencyTicks::UNDEFINED   2147483750                       # Cumulative time (in ticks) in various power states (Tick)
system.ruby.dir_cntrl11.requestToDir.m_msg_count       123209                       # Number of messages passed the buffer (Count)
system.ruby.dir_cntrl11.requestToDir.m_buf_msgs     0.014343                       # Average number of messages in buffer ((Count/Tick))
system.ruby.dir_cntrl11.responseToDir.m_msg_count       107745                       # Number of messages passed the buffer (Count)
[...]
system.ruby.network.sankey.vcvn13.vcvn5             0                       (Unspecified)
system.ruby.network.sankey.vcvn13.vcvn6             0                       (Unspecified)
system.ruby.network.sankey.vcvn13.vcvn7             0                       (Unspecified)
system.ruby.network.sankey.vcvn13.vcvn8             0                       (Unspecified)
system.ruby.network.sankey.vcvn13.vcvn9             0                       (Unspecified)
system.ruby.network.sankey.vcvn14.vcvn0             0                       (Unspecified)
system.ruby.network.sankey.vcvn14.vcvn1             0                       (Unspecified)
system.ruby.network.sankey.vcvn14.vcvn10            0                       (Unspecified)
system.ruby.network.sankey.vcvn14.vcvn11            0                       (Unspecified)
system.ruby.network.sankey.vcvn14.vcvn12     10684214                       (Unspecified)
system.ruby.network.sankey.vcvn14.vcvn13      2499355                       (Unspecified)
system.ruby.network.sankey.vcvn14.vcvn14       354915                       (Unspecified)
system.ruby.network.sankey.vcvn14.vcvn15        33665                       (Unspecified)
system.ruby.network.sankey.vcvn14.vcvn16      1191570                       (Unspecified)
system.ruby.network.sankey.vcvn14.vcvn17      2023325                       (Unspecified)
system.ruby.network.sankey.vcvn14.vcvn2             0                       (Unspecified)
system.ruby.network.sankey.vcvn14.vcvn3             0                       (Unspecified)
system.ruby.network.sankey.vcvn14.vcvn4             0                       (Unspecified)
system.ruby.network.sankey.vcvn14.vcvn5             0                       (Unspecified)
system.ruby.network.sankey.vcvn14.vcvn6             0                       (Unspecified)
system.ruby.network.sankey.vcvn14.vcvn7             0                       (Unspecified)
system.ruby.network.sankey.vcvn14.vcvn8             0                       (Unspecified)
system.ruby.network.sankey.vcvn14.vcvn9             0                       (Unspecified)
system.ruby.network.sankey.vcvn15.vcvn0             0                       (Unspecified)
system.ruby.network.sankey.vcvn15.vcvn1             0                       (Unspecified)
system.ruby.network.sankey.vcvn15.vcvn10            0                       (Unspecified)
system.ruby.network.sankey.vcvn15.vcvn11            0                       (Unspecified)
system.ruby.network.sankey.vcvn15.vcvn12      8872366                       (Unspecified)
system.ruby.network.sankey.vcvn15.vcvn13      2070729                       (Unspecified)
system.ruby.network.sankey.vcvn15.vcvn14       291935                       (Unspecified)
system.ruby.network.sankey.vcvn15.vcvn15        27835                       (Unspecified)
system.ruby.network.sankey.vcvn15.vcvn16       975635                       (Unspecified)
system.ruby.network.sankey.vcvn15.vcvn17      1721849                       (Unspecified)
system.ruby.network.sankey.vcvn15.vcvn2             0                       (Unspecified)
system.ruby.network.sankey.vcvn15.vcvn3             0                       (Unspecified)
system.ruby.network.sankey.vcvn15.vcvn4             0                       (Unspecified)
system.ruby.network.sankey.vcvn15.vcvn5             0                       (Unspecified)
system.ruby.network.sankey.vcvn15.vcvn6             0                       (Unspecified)
system.ruby.network.sankey.vcvn15.vcvn7             0                       (Unspecified)
system.ruby.network.sankey.vcvn15.vcvn8             0                       (Unspecified)
system.ruby.network.sankey.vcvn15.vcvn9             0                       (Unspecified)
system.ruby.network.sankey.vcvn16.vcvn0             0                       (Unspecified)
system.ruby.network.sankey.vcvn16.vcvn1             0                       (Unspecified)
system.ruby.network.sankey.vcvn16.vcvn10            0                       (Unspecified)
system.ruby.network.sankey.vcvn16.vcvn11            0                       (Unspecified)
system.ruby.network.sankey.vcvn16.vcvn12            0                       (Unspecified)
system.ruby.network.sankey.vcvn16.vcvn13            0                       (Unspecified)
system.ruby.network.sankey.vcvn16.vcvn14            0                       (Unspecified)
system.ruby.network.sankey.vcvn16.vcvn15            0                       (Unspecified)
system.ruby.network.sankey.vcvn16.vcvn16      3997584                       (Unspecified)
system.ruby.network.sankey.vcvn16.vcvn17            0                       (Unspecified)
system.ruby.network.sankey.vcvn16.vcvn2             0                       (Unspecified)
system.ruby.network.sankey.vcvn16.vcvn3             0                       (Unspecified)
system.ruby.network.sankey.vcvn16.vcvn4             0                       (Unspecified)
system.ruby.network.sankey.vcvn16.vcvn5             0                       (Unspecified)
system.ruby.network.sankey.vcvn16.vcvn6             0                       (Unspecified)
system.ruby.network.sankey.vcvn16.vcvn7             0                       (Unspecified)
system.ruby.network.sankey.vcvn16.vcvn8             0                       (Unspecified)
system.ruby.network.sankey.vcvn16.vcvn9             0                       (Unspecified)
system.ruby.network.sankey.vcvn17.vcvn0             0                       (Unspecified)
system.ruby.network.sankey.vcvn17.vcvn1             0                       (Unspecified)
system.ruby.network.sankey.vcvn17.vcvn10            0                       (Unspecified)
system.ruby.network.sankey.vcvn17.vcvn11            0                       (Unspecified)
system.ruby.network.sankey.vcvn17.vcvn12            0                       (Unspecified)
system.ruby.network.sankey.vcvn17.vcvn13            0                       (Unspecified)
system.ruby.network.sankey.vcvn17.vcvn14            0                       (Unspecified)
system.ruby.network.sankey.vcvn17.vcvn15            0                       (Unspecified)
system.ruby.network.sankey.vcvn17.vcvn16            0                       (Unspecified)
system.ruby.network.sankey.vcvn17.vcvn17      2260044                       (Unspecified)
system.ruby.network.sankey.vcvn17.vcvn2             0                       (Unspecified)
system.ruby.network.sankey.vcvn17.vcvn3             0                       (Unspecified)
system.ruby.network.sankey.vcvn17.vcvn4             0                       (Unspecified)
system.ruby.network.sankey.vcvn17.vcvn5             0                       (Unspecified)
system.ruby.network.sankey.vcvn17.vcvn6             0                       (Unspecified)
system.ruby.network.sankey.vcvn17.vcvn7             0                       (Unspecified)
system.ruby.network.sankey.vcvn17.vcvn8             0                       (Unspecified)
system.ruby.network.sankey.vcvn17.vcvn9             0                       (Unspecified)
system.ruby.network.sankey.vcvn2.vcvn0        3473869                       (Unspecified)
system.ruby.network.sankey.vcvn2.vcvn1         249168                       (Unspecified)
system.ruby.network.sankey.vcvn2.vcvn10             0                       (Unspecified)
system.ruby.network.sankey.vcvn2.vcvn11             0                       (Unspecified)
system.ruby.network.sankey.vcvn2.vcvn12             0                       (Unspecified)
system.ruby.network.sankey.vcvn2.vcvn13             0                       (Unspecified)
system.ruby.network.sankey.vcvn2.vcvn14             0                       (Unspecified)
system.ruby.network.sankey.vcvn2.vcvn15             0                       (Unspecified)
system.ruby.network.sankey.vcvn2.vcvn16             0                       (Unspecified)
system.ruby.network.sankey.vcvn2.vcvn17             0                       (Unspecified)
system.ruby.network.sankey.vcvn2.vcvn2           9022                       (Unspecified)
system.ruby.network.sankey.vcvn2.vcvn3            213                       (Unspecified)
system.ruby.network.sankey.vcvn2.vcvn4           1784                       (Unspecified)
system.ruby.network.sankey.vcvn2.vcvn5           4277                       (Unspecified)
system.ruby.network.sankey.vcvn2.vcvn6              0                       (Unspecified)
system.ruby.network.sankey.vcvn2.vcvn7              0                       (Unspecified)
system.ruby.network.sankey.vcvn2.vcvn8              0                       (Unspecified)
system.ruby.network.sankey.vcvn2.vcvn9              0                       (Unspecified)
system.ruby.network.sankey.vcvn3.vcvn0        3473627                       (Unspecified)
system.ruby.network.sankey.vcvn3.vcvn1         248795                       (Unspecified)
system.ruby.network.sankey.vcvn3.vcvn10             0                       (Unspecified)
system.ruby.network.sankey.vcvn3.vcvn11             0                       (Unspecified)
system.ruby.network.sankey.vcvn3.vcvn12             0                       (Unspecified)
system.ruby.network.sankey.vcvn3.vcvn13             0                       (Unspecified)
system.ruby.network.sankey.vcvn3.vcvn14             0                       (Unspecified)
system.ruby.network.sankey.vcvn3.vcvn15             0                       (Unspecified)
system.ruby.network.sankey.vcvn3.vcvn16             0                       (Unspecified)
system.ruby.network.sankey.vcvn3.vcvn17             0                       (Unspecified)
system.ruby.network.sankey.vcvn3.vcvn2           9007                       (Unspecified)
system.ruby.network.sankey.vcvn3.vcvn3            223                       (Unspecified)
system.ruby.network.sankey.vcvn3.vcvn4           1802                       (Unspecified)
system.ruby.network.sankey.vcvn3.vcvn5           4563                       (Unspecified)
system.ruby.network.sankey.vcvn3.vcvn6              0                       (Unspecified)
system.ruby.network.sankey.vcvn3.vcvn7              0                       (Unspecified)
system.ruby.network.sankey.vcvn3.vcvn8              0                       (Unspecified)
system.ruby.network.sankey.vcvn3.vcvn9              0                       (Unspecified)
system.ruby.network.sankey.vcvn4.vcvn0              0                       (Unspecified)
system.ruby.network.sankey.vcvn4.vcvn1              0                       (Unspecified)
system.ruby.network.sankey.vcvn4.vcvn10             0                       (Unspecified)
system.ruby.network.sankey.vcvn4.vcvn11             0                       (Unspecified)
system.ruby.network.sankey.vcvn4.vcvn12             0                       (Unspecified)
system.ruby.network.sankey.vcvn4.vcvn13             0                       (Unspecified)
system.ruby.network.sankey.vcvn4.vcvn14             0                       (Unspecified)
system.ruby.network.sankey.vcvn4.vcvn15             0                       (Unspecified)
system.ruby.network.sankey.vcvn4.vcvn16             0                       (Unspecified)
system.ruby.network.sankey.vcvn4.vcvn17             0                       (Unspecified)
system.ruby.network.sankey.vcvn4.vcvn2              0                       (Unspecified)
system.ruby.network.sankey.vcvn4.vcvn3              0                       (Unspecified)
system.ruby.network.sankey.vcvn4.vcvn4        1202383                       (Unspecified)
system.ruby.network.sankey.vcvn4.vcvn5              0                       (Unspecified)
system.ruby.network.sankey.vcvn4.vcvn6              0                       (Unspecified)
system.ruby.network.sankey.vcvn4.vcvn7              0                       (Unspecified)
system.ruby.network.sankey.vcvn4.vcvn8              0                       (Unspecified)
system.ruby.network.sankey.vcvn4.vcvn9              0                       (Unspecified)
system.ruby.network.sankey.vcvn5.vcvn0              0                       (Unspecified)
system.ruby.network.sankey.vcvn5.vcvn1              0                       (Unspecified)
system.ruby.network.sankey.vcvn5.vcvn10             0                       (Unspecified)
system.ruby.network.sankey.vcvn5.vcvn11             0                       (Unspecified)
system.ruby.network.sankey.vcvn5.vcvn12             0                       (Unspecified)
system.ruby.network.sankey.vcvn5.vcvn13             0                       (Unspecified)
system.ruby.network.sankey.vcvn5.vcvn14             0                       (Unspecified)
system.ruby.network.sankey.vcvn5.vcvn15             0                       (Unspecified)
system.ruby.network.sankey.vcvn5.vcvn16             0                       (Unspecified)
system.ruby.network.sankey.vcvn5.vcvn17             0                       (Unspecified)
system.ruby.network.sankey.vcvn5.vcvn2              0                       (Unspecified)
system.ruby.network.sankey.vcvn5.vcvn3              0                       (Unspecified)
system.ruby.network.sankey.vcvn5.vcvn4              0                       (Unspecified)
system.ruby.network.sankey.vcvn5.vcvn5        3580639                       (Unspecified)
system.ruby.network.sankey.vcvn5.vcvn6              0                       (Unspecified)
system.ruby.network.sankey.vcvn5.vcvn7              0                       (Unspecified)
system.ruby.network.sankey.vcvn5.vcvn8              0                       (Unspecified)
system.ruby.network.sankey.vcvn5.vcvn9              0                       (Unspecified)
system.ruby.network.sankey.vcvn6.vcvn0              0                       (Unspecified)
system.ruby.network.sankey.vcvn6.vcvn1              0                       (Unspecified)
system.ruby.network.sankey.vcvn6.vcvn10             0                       (Unspecified)
system.ruby.network.sankey.vcvn6.vcvn11             0                       (Unspecified)
system.ruby.network.sankey.vcvn6.vcvn12             0                       (Unspecified)
system.ruby.network.sankey.vcvn6.vcvn13             0                       (Unspecified)
system.ruby.network.sankey.vcvn6.vcvn14             0                       (Unspecified)
system.ruby.network.sankey.vcvn6.vcvn15             0                       (Unspecified)
system.ruby.network.sankey.vcvn6.vcvn16             0                       (Unspecified)
system.ruby.network.sankey.vcvn6.vcvn17             0                       (Unspecified)
system.ruby.network.sankey.vcvn6.vcvn2              0                       (Unspecified)
system.ruby.network.sankey.vcvn6.vcvn3              0                       (Unspecified)
system.ruby.network.sankey.vcvn6.vcvn4              0                       (Unspecified)
system.ruby.network.sankey.vcvn6.vcvn5              0                       (Unspecified)
system.ruby.network.sankey.vcvn6.vcvn6              0                       (Unspecified)
system.ruby.network.sankey.vcvn6.vcvn7              0                       (Unspecified)
system.ruby.network.sankey.vcvn6.vcvn8              0                       (Unspecified)
system.ruby.network.sankey.vcvn6.vcvn9              0                       (Unspecified)
system.ruby.network.sankey.vcvn7.vcvn0              0                       (Unspecified)
system.ruby.network.sankey.vcvn7.vcvn1              0                       (Unspecified)
system.ruby.network.sankey.vcvn7.vcvn10             0                       (Unspecified)
system.ruby.network.sankey.vcvn7.vcvn11             0                       (Unspecified)
system.ruby.network.sankey.vcvn7.vcvn12             0                       (Unspecified)
system.ruby.network.sankey.vcvn7.vcvn13             0                       (Unspecified)
system.ruby.network.sankey.vcvn7.vcvn14             0                       (Unspecified)
system.ruby.network.sankey.vcvn7.vcvn15             0                       (Unspecified)
system.ruby.network.sankey.vcvn7.vcvn16             0                       (Unspecified)
system.ruby.network.sankey.vcvn7.vcvn17             0                       (Unspecified)
system.ruby.network.sankey.vcvn7.vcvn2              0                       (Unspecified)
system.ruby.network.sankey.vcvn7.vcvn3              0                       (Unspecified)
system.ruby.network.sankey.vcvn7.vcvn4              0                       (Unspecified)
system.ruby.network.sankey.vcvn7.vcvn5              0                       (Unspecified)
system.ruby.network.sankey.vcvn7.vcvn6              0                       (Unspecified)
system.ruby.network.sankey.vcvn7.vcvn7              0                       (Unspecified)
system.ruby.network.sankey.vcvn7.vcvn8              0                       (Unspecified)
system.ruby.network.sankey.vcvn7.vcvn9              0                       (Unspecified)
system.ruby.network.sankey.vcvn8.vcvn0              0                       (Unspecified)
system.ruby.network.sankey.vcvn8.vcvn1              0                       (Unspecified)
system.ruby.network.sankey.vcvn8.vcvn10             0                       (Unspecified)
system.ruby.network.sankey.vcvn8.vcvn11             0                       (Unspecified)
system.ruby.network.sankey.vcvn8.vcvn12             0                       (Unspecified)
system.ruby.network.sankey.vcvn8.vcvn13             0                       (Unspecified)
system.ruby.network.sankey.vcvn8.vcvn14             0                       (Unspecified)
system.ruby.network.sankey.vcvn8.vcvn15             0                       (Unspecified)
system.ruby.network.sankey.vcvn8.vcvn16             0                       (Unspecified)
system.ruby.network.sankey.vcvn8.vcvn17             0                       (Unspecified)
system.ruby.network.sankey.vcvn8.vcvn2              0                       (Unspecified)
system.ruby.network.sankey.vcvn8.vcvn3              0                       (Unspecified)
system.ruby.network.sankey.vcvn8.vcvn4              0                       (Unspecified)
system.ruby.network.sankey.vcvn8.vcvn5              0                       (Unspecified)
system.ruby.network.sankey.vcvn8.vcvn6              0                       (Unspecified)
system.ruby.network.sankey.vcvn8.vcvn7              0                       (Unspecified)
system.ruby.network.sankey.vcvn8.vcvn8              0                       (Unspecified)
system.ruby.network.sankey.vcvn8.vcvn9              0                       (Unspecified)
system.ruby.network.sankey.vcvn9.vcvn0              0                       (Unspecified)
system.ruby.network.sankey.vcvn9.vcvn1              0                       (Unspecified)
system.ruby.network.sankey.vcvn9.vcvn10             0                       (Unspecified)
system.ruby.network.sankey.vcvn9.vcvn11             0                       (Unspecified)
system.ruby.network.sankey.vcvn9.vcvn12             0                       (Unspecified)
system.ruby.network.sankey.vcvn9.vcvn13             0                       (Unspecified)
system.ruby.network.sankey.vcvn9.vcvn14             0                       (Unspecified)
system.ruby.network.sankey.vcvn9.vcvn15             0                       (Unspecified)
system.ruby.network.sankey.vcvn9.vcvn16             0                       (Unspecified)
system.ruby.network.sankey.vcvn9.vcvn17             0                       (Unspecified)
system.ruby.network.sankey.vcvn9.vcvn2              0                       (Unspecified)
system.ruby.network.sankey.vcvn9.vcvn3              0                       (Unspecified)
system.ruby.network.sankey.vcvn9.vcvn4              0                       (Unspecified)
system.ruby.network.sankey.vcvn9.vcvn5              0                       (Unspecified)
system.ruby.network.sankey.vcvn9.vcvn6              0                       (Unspecified)
system.ruby.network.sankey.vcvn9.vcvn7              0                       (Unspecified)
system.ruby.network.sankey.vcvn9.vcvn8              0                       (Unspecified)
system.ruby.network.sankey.vcvn9.vcvn9              0                       (Unspecified)

---------- End Simulation Statistics   ----------
