
---------- Begin Simulation Statistics ----------
simSeconds                                   0.002147                       # Number of seconds simulated (Second)
simTicks                                   2147483750                       # Number of ticks simulated (Tick)
finalTick                                  2147483750                       # Number of ticks from beginning of simulation (restored from checkpoints and never reset) (Tick)
simFreq                                  1000000000000                       # The number of ticks per simulated second ((Tick/Second))
hostSeconds                                   5459.60                       # Real time elapsed on the host (Second)
hostTickRate                                   393341                       # The number of ticks simulated per host second (ticks/s) ((Tick/Second))
hostMemory                                    5479200                       # Number of bytes of host memory used (Byte)
system.clk_domain.clock                           250                       # Clock period in ticks (Tick)
system.cpu0.power_state.pwrStateResidencyTicks::UNDEFINED   2147483750                       # Cumulative time (in ticks) in various power states (Tick)
system.cpu1.power_state.pwrStateResidencyTicks::UNDEFINED   2147483750                       # Cumulative time (in ticks) in various power states (Tick)
system.cpu10.power_state.pwrStateResidencyTicks::UNDEFINED   2147483750                       # Cumulative time (in ticks) in various power states (Tick)
system.cpu11.power_state.pwrStateResidencyTicks::UNDEFINED   2147483750                       # Cumulative time (in ticks) in various power states (Tick)
system.cpu12.power_state.pwrStateResidencyTicks::UNDEFINED   2147483750                       # Cumulative time (in ticks) in various power states (Tick)
system.cpu13.power_state.pwrStateResidencyTicks::UNDEFINED   2147483750                       # Cumulative time (in ticks) in various power states (Tick)
system.cpu14.power_state.pwrStateResidencyTicks::UNDEFINED   2147483750                       # Cumulative time (in ticks) in various power states (Tick)
system.cpu15.power_state.pwrStateResidencyTicks::UNDEFINED   2147483750                       # Cumulative time (in ticks) in various power states (Tick)
system.cpu16.power_state.pwrStateResidencyTicks::UNDEFINED   2147483750                       # Cumulative time (in ticks) in various power states (Tick)
system.cpu17.power_state.pwrStateResidencyTicks::UNDEFINED   2147483750                       # Cumulative time (in ticks) in various power states (Tick)
system.cpu18.power_state.pwrStateResidencyTicks::UNDEFINED   2147483750                       # Cumulative time (in ticks) in various power states (Tick)
system.cpu19.power_state.pwrStateResidencyTicks::UNDEFINED   2147483750                       # Cumulative time (in ticks) in various power states (Tick)
system.cpu2.power_state.pwrStateResidencyTicks::UNDEFINED   2147483750                       # Cumulative time (in ticks) in various power states (Tick)
system.cpu20.power_state.pwrStateResidencyTicks::UNDEFINED   2147483750                       # Cumulative time (in ticks) in various power states (Tick)
system.cpu21.power_state.pwrStateResidencyTicks::UNDEFINED   2147483750                       # Cumulative time (in ticks) in various power states (Tick)
system.cpu22.power_state.pwrStateResidencyTicks::UNDEFINED   2147483750                       # Cumulative time (in ticks) in various power states (Tick)
system.cpu23.power_state.pwrStateResidencyTicks::UNDEFINED   2147483750                       # Cumulative time (in ticks) in various power states (Tick)
system.cpu24.power_state.pwrStateResidencyTicks::UNDEFINED   2147483750                       # Cumulative time (in ticks) in various power states (Tick)
system.cpu25.power_state.pwrStateResidencyTicks::UNDEFINED   2147483750                       # Cumulative time (in ticks) in various power states (Tick)
system.cpu26.power_state.pwrStateResidencyTicks::UNDEFINED   2147483750                       # Cumulative time (in ticks) in various power states (Tick)
system.cpu27.power_state.pwrStateResidencyTicks::UNDEFINED   2147483750                       # Cumulative time (in ticks) in various power states (Tick)
system.cpu28.power_state.pwrStateResidencyTicks::UNDEFINED   2147483750                       # Cumulative time (in ticks) in various power states (Tick)
system.cpu29.power_state.pwrStateResidencyTicks::UNDEFINED   2147483750                       # Cumulative time (in ticks) in various power states (Tick)
system.cpu3.power_state.pwrStateResidencyTicks::UNDEFINED   2147483750                       # Cumulative time (in ticks) in various power states (Tick)
system.cpu30.power_state.pwrStateResidencyTicks::UNDEFINED   2147483750                       # Cumulative time (in ticks) in various power states (Tick)
system.cpu31.power_state.pwrStateResidencyTicks::UNDEFINED   2147483750                       # Cumulative time (in ticks) in various power states (Tick)
system.cpu32.power_state.pwrStateResidencyTicks::UNDEFINED   2147483750                       # Cumulative time (in ticks) in various power states (Tick)
system.cpu33.power_state.pwrStateResidencyTicks::UNDEFINED   2147483750                       # Cumulative time (in ticks) in various power states (Tick)
system.cpu34.power_state.pwrStateResidencyTicks::UNDEFINED   2147483750                       # Cumulative time (in ticks) in various power states (Tick)
system.cpu35.power_state.pwrStateResidencyTicks::UNDEFINED   2147483750                       # Cumulative time (in ticks) in various power states (Tick)
system.cpu36.power_state.pwrStateResidencyTicks::UNDEFINED   2147483750                       # Cumulative time (in ticks) in various power states (Tick)
system.cpu37.power_state.pwrStateResidencyTicks::UNDEFINED   2147483750                       # Cumulative time (in ticks) in various power states (Tick)
system.cpu38.power_state.pwrStateResidencyTicks::UNDEFINED   2147483750                       # Cumulative time (in ticks) in various power states (Tick)
system.cpu39.power_state.pwrStateResidencyTicks::UNDEFINED   2147483750                       # Cumulative time (in ticks) in various power states (Tick)
system.cpu4.power_state.pwrStateResidencyTicks::UNDEFINED   2147483750                       # Cumulative time (in ticks) in various power states (Tick)
system.cpu5.power_state.pwrStateResidencyTicks::UNDEFINED   2147483750                       # Cumulative time (in ticks) in various power states (Tick)
system.cpu6.power_state.pwrStateResidencyTicks::UNDEFINED   2147483750                       # Cumulative time (in ticks) in various power states (Tick)
system.cpu7.power_state.pwrStateResidencyTicks::UNDEFINED   2147483750                       # Cumulative time (in ticks) in various power states (Tick)
system.cpu8.power_state.pwrStateResidencyTicks::UNDEFINED   2147483750                       # Cumulative time (in ticks) in various power states (Tick)
system.cpu9.power_state.pwrStateResidencyTicks::UNDEFINED   2147483750                       # Cumulative time (in ticks) in various power states (Tick)
system.mem_ctrls0.power_state.pwrStateResidencyTicks::UNDEFINED   2147483750                       # Cumulative time (in ticks) in various power states (Tick)
system.mem_ctrls1.power_state.pwrStateResidencyTicks::UNDEFINED   2147483750                       # Cumulative time (in ticks) in various power states (Tick)
system.mem_ctrls10.power_state.pwrStateResidencyTicks::UNDEFINED   2147483750                       # Cumulative time (in ticks) in various power states (Tick)
system.mem_ctrls100.power_state.pwrStateResidencyTicks::UNDEFINED   2147483750                       # Cumulative time (in ticks) in various power states (Tick)
system.mem_ctrls101.power_state.pwrStateResidencyTicks::UNDEFINED   2147483750                       # Cumulative time (in ticks) in various power states (Tick)
system.mem_ctrls102.power_state.pwrStateResidencyTicks::UNDEFINED   2147483750                       # Cumulative time (in ticks) in various power states (Tick)
system.mem_ctrls103.power_state.pwrStateResidencyTicks::UNDEFINED   2147483750                       # Cumulative time (in ticks) in various power states (Tick)
system.mem_ctrls104.power_state.pwrStateResidencyTicks::UNDEFINED   2147483750                       # Cumulative time (in ticks) in various power states (Tick)
system.mem_ctrls105.power_state.pwrStateResidencyTicks::UNDEFINED   2147483750                       # Cumulative time (in ticks) in various power states (Tick)
system.mem_ctrls106.power_state.pwrStateResidencyTicks::UNDEFINED   2147483750                       # Cumulative time (in ticks) in various power states (Tick)
system.mem_ctrls107.power_state.pwrStateResidencyTicks::UNDEFINED   2147483750                       # Cumulative time (in ticks) in various power states (Tick)
system.mem_ctrls108.power_state.pwrStateResidencyTicks::UNDEFINED   2147483750                       # Cumulative time (in ticks) in various power states (Tick)
system.mem_ctrls109.power_state.pwrStateResidencyTicks::UNDEFINED   2147483750                       # Cumulative time (in ticks) in various power states (Tick)
system.mem_ctrls11.power_state.pwrStateResidencyTicks::UNDEFINED   2147483750                       # Cumulative time (in ticks) in various power states (Tick)
system.mem_ctrls110.power_state.pwrStateResidencyTicks::UNDEFINED   2147483750                       # Cumulative time (in ticks) in various power states (Tick)
system.mem_ctrls111.power_state.pwrStateResidencyTicks::UNDEFINED   2147483750                       # Cumulative time (in ticks) in various power states (Tick)
system.mem_ctrls112.power_state.pwrStateResidencyTicks::UNDEFINED   2147483750                       # Cumulative time (in ticks) in various power states (Tick)
system.mem_ctrls113.power_state.pwrStateResidencyTicks::UNDEFINED   2147483750                       # Cumulative time (in ticks) in various power states (Tick)
system.mem_ctrls114.power_state.pwrStateResidencyTicks::UNDEFINED   2147483750                       # Cumulative time (in ticks) in various power states (Tick)
system.mem_ctrls115.power_state.pwrStateResidencyTicks::UNDEFINED   2147483750                       # Cumulative time (in ticks) in various power states (Tick)
system.mem_ctrls116.power_state.pwrStateResidencyTicks::UNDEFINED   2147483750                       # Cumulative time (in ticks) in various power states (Tick)
system.mem_ctrls117.power_state.pwrStateResidencyTicks::UNDEFINED   2147483750                       # Cumulative time (in ticks) in various power states (Tick)
system.mem_ctrls118.power_state.pwrStateResidencyTicks::UNDEFINED   2147483750                       # Cumulative time (in ticks) in various power states (Tick)
system.mem_ctrls119.power_state.pwrStateResidencyTicks::UNDEFINED   2147483750                       # Cumulative time (in ticks) in various power states (Tick)
system.mem_ctrls12.power_state.pwrStateResidencyTicks::UNDEFINED   2147483750                       # Cumulative time (in ticks) in various power states (Tick)
system.mem_ctrls120.power_state.pwrStateResidencyTicks::UNDEFINED   2147483750                       # Cumulative time (in ticks) in various power states (Tick)
system.mem_ctrls121.power_state.pwrStateResidencyTicks::UNDEFINED   2147483750                       # Cumulative time (in ticks) in various power states (Tick)
system.mem_ctrls122.power_state.pwrStateResidencyTicks::UNDEFINED   2147483750                       # Cumulative time (in ticks) in various power states (Tick)
system.mem_ctrls123.power_state.pwrStateResidencyTicks::UNDEFINED   2147483750                       # Cumulative time (in ticks) in various power states (Tick)
system.mem_ctrls124.power_state.pwrStateResidencyTicks::UNDEFINED   2147483750                       # Cumulative time (in ticks) in various power states (Tick)
system.mem_ctrls125.power_state.pwrStateResidencyTicks::UNDEFINED   2147483750                       # Cumulative time (in ticks) in various power states (Tick)
system.mem_ctrls126.power_state.pwrStateResidencyTicks::UNDEFINED   2147483750                       # Cumulative time (in ticks) in various power states (Tick)
system.mem_ctrls127.power_state.pwrStateResidencyTicks::UNDEFINED   2147483750                       # Cumulative time (in ticks) in various power states (Tick)
system.mem_ctrls128.power_state.pwrStateResidencyTicks::UNDEFINED   2147483750                       # Cumulative time (in ticks) in various power states (Tick)
system.mem_ctrls129.power_state.pwrStateResidencyTicks::UNDEFINED   2147483750                       # Cumulative time (in ticks) in various power states (Tick)
system.mem_ctrls13.power_state.pwrStateResidencyTicks::UNDEFINED   2147483750                       # Cumulative time (in ticks) in various power states (Tick)
system.mem_ctrls130.power_state.pwrStateResidencyTicks::UNDEFINED   2147483750                       # Cumulative time (in ticks) in various power states (Tick)
system.mem_ctrls131.power_state.pwrStateResidencyTicks::UNDEFINED   2147483750                       # Cumulative time (in ticks) in various power states (Tick)
system.mem_ctrls132.power_state.pwrStateResidencyTicks::UNDEFINED   2147483750                       # Cumulative time (in ticks) in various power states (Tick)
system.mem_ctrls133.power_state.pwrStateResidencyTicks::UNDEFINED   2147483750                       # Cumulative time (in ticks) in various power states (Tick)
system.mem_ctrls134.power_state.pwrStateResidencyTicks::UNDEFINED   2147483750                       # Cumulative time (in ticks) in various power states (Tick)
system.mem_ctrls135.power_state.pwrStateResidencyTicks::UNDEFINED   2147483750                       # Cumulative time (in ticks) in various power states (Tick)
system.mem_ctrls136.power_state.pwrStateResidencyTicks::UNDEFINED   2147483750                       # Cumulative time (in ticks) in various power states (Tick)
system.mem_ctrls137.power_state.pwrStateResidencyTicks::UNDEFINED   2147483750                       # Cumulative time (in ticks) in various power states (Tick)
system.mem_ctrls138.power_state.pwrStateResidencyTicks::UNDEFINED   2147483750                       # Cumulative time (in ticks) in various power states (Tick)
system.mem_ctrls139.power_state.pwrStateResidencyTicks::UNDEFINED   2147483750                       # Cumulative time (in ticks) in various power states (Tick)
system.mem_ctrls14.power_state.pwrStateResidencyTicks::UNDEFINED   2147483750                       # Cumulative time (in ticks) in various power states (Tick)
system.mem_ctrls140.power_state.pwrStateResidencyTicks::UNDEFINED   2147483750                       # Cumulative time (in ticks) in various power states (Tick)
system.mem_ctrls141.power_state.pwrStateResidencyTicks::UNDEFINED   2147483750                       # Cumulative time (in ticks) in various power states (Tick)
system.mem_ctrls142.power_state.pwrStateResidencyTicks::UNDEFINED   2147483750                       # Cumulative time (in ticks) in various power states (Tick)
system.mem_ctrls143.power_state.pwrStateResidencyTicks::UNDEFINED   2147483750                       # Cumulative time (in ticks) in various power states (Tick)
system.mem_ctrls144.power_state.pwrStateResidencyTicks::UNDEFINED   2147483750                       # Cumulative time (in ticks) in various power states (Tick)
system.mem_ctrls145.power_state.pwrStateResidencyTicks::UNDEFINED   2147483750                       # Cumulative time (in ticks) in various power states (Tick)
system.mem_ctrls146.power_state.pwrStateResidencyTicks::UNDEFINED   2147483750                       # Cumulative time (in ticks) in various power states (Tick)
system.mem_ctrls147.power_state.pwrStateResidencyTicks::UNDEFINED   2147483750                       # Cumulative time (in ticks) in various power states (Tick)
system.mem_ctrls148.power_state.pwrStateResidencyTicks::UNDEFINED   2147483750                       # Cumulative time (in ticks) in various power states (Tick)
system.mem_ctrls149.power_state.pwrStateResidencyTicks::UNDEFINED   2147483750                       # Cumulative time (in ticks) in various power states (Tick)
system.mem_ctrls15.power_state.pwrStateResidencyTicks::UNDEFINED   2147483750                       # Cumulative time (in ticks) in various power states (Tick)
system.mem_ctrls150.power_state.pwrStateResidencyTicks::UNDEFINED   2147483750                       # Cumulative time (in ticks) in various power states (Tick)
system.mem_ctrls151.power_state.pwrStateResidencyTicks::UNDEFINED   2147483750                       # Cumulative time (in ticks) in various power states (Tick)
system.mem_ctrls152.power_state.pwrStateResidencyTicks::UNDEFINED   2147483750                       # Cumulative time (in ticks) in various power states (Tick)
system.mem_ctrls153.power_state.pwrStateResidencyTicks::UNDEFINED   2147483750                       # Cumulative time (in ticks) in various power states (Tick)
system.mem_ctrls154.power_state.pwrStateResidencyTicks::UNDEFINED   2147483750                       # Cumulative time (in ticks) in various power states (Tick)
system.mem_ctrls155.power_state.pwrStateResidencyTicks::UNDEFINED   2147483750                       # Cumulative time (in ticks) in various power states (Tick)
system.mem_ctrls156.power_state.pwrStateResidencyTicks::UNDEFINED   2147483750                       # Cumulative time (in ticks) in various power states (Tick)
system.mem_ctrls157.power_state.pwrStateResidencyTicks::UNDEFINED   2147483750                       # Cumulative time (in ticks) in various power states (Tick)
system.mem_ctrls158.power_state.pwrStateResidencyTicks::UNDEFINED   2147483750                       # Cumulative time (in ticks) in various power states (Tick)
system.mem_ctrls159.power_state.pwrStateResidencyTicks::UNDEFINED   2147483750                       # Cumulative time (in ticks) in various power states (Tick)
system.mem_ctrls16.power_state.pwrStateResidencyTicks::UNDEFINED   2147483750                       # Cumulative time (in ticks) in various power states (Tick)
system.mem_ctrls17.power_state.pwrStateResidencyTicks::UNDEFINED   2147483750                       # Cumulative time (in ticks) in various power states (Tick)
system.mem_ctrls18.power_state.pwrStateResidencyTicks::UNDEFINED   2147483750                       # Cumulative time (in ticks) in various power states (Tick)
system.mem_ctrls19.power_state.pwrStateResidencyTicks::UNDEFINED   2147483750                       # Cumulative time (in ticks) in various power states (Tick)
system.mem_ctrls2.power_state.pwrStateResidencyTicks::UNDEFINED   2147483750                       # Cumulative time (in ticks) in various power states (Tick)
system.mem_ctrls20.power_state.pwrStateResidencyTicks::UNDEFINED   2147483750                       # Cumulative time (in ticks) in various power states (Tick)
system.mem_ctrls21.power_state.pwrStateResidencyTicks::UNDEFINED   2147483750                       # Cumulative time (in ticks) in various power states (Tick)
system.mem_ctrls22.power_state.pwrStateResidencyTicks::UNDEFINED   2147483750                       # Cumulative time (in ticks) in various power states (Tick)
system.mem_ctrls23.power_state.pwrStateResidencyTicks::UNDEFINED   2147483750                       # Cumulative time (in ticks) in various power states (Tick)
system.mem_ctrls24.power_state.pwrStateResidencyTicks::UNDEFINED   2147483750                       # Cumulative time (in ticks) in various power states (Tick)
system.mem_ctrls25.power_state.pwrStateResidencyTicks::UNDEFINED   2147483750                       # Cumulative time (in ticks) in various power states (Tick)
system.mem_ctrls26.power_state.pwrStateResidencyTicks::UNDEFINED   2147483750                       # Cumulative time (in ticks) in various power states (Tick)
system.mem_ctrls27.power_state.pwrStateResidencyTicks::UNDEFINED   2147483750                       # Cumulative time (in ticks) in various power states (Tick)
system.mem_ctrls28.power_state.pwrStateResidencyTicks::UNDEFINED   2147483750                       # Cumulative time (in ticks) in various power states (Tick)
system.mem_ctrls29.power_state.pwrStateResidencyTicks::UNDEFINED   2147483750                       # Cumulative time (in ticks) in various power states (Tick)
system.mem_ctrls3.power_state.pwrStateResidencyTicks::UNDEFINED   2147483750                       # Cumulative time (in ticks) in various power states (Tick)
system.mem_ctrls30.power_state.pwrStateResidencyTicks::UNDEFINED   2147483750                       # Cumulative time (in ticks) in various power states (Tick)
system.mem_ctrls31.power_state.pwrStateResidencyTicks::UNDEFINED   2147483750                       # Cumulative time (in ticks) in various power states (Tick)
system.mem_ctrls32.power_state.pwrStateResidencyTicks::UNDEFINED   2147483750                       # Cumulative time (in ticks) in various power states (Tick)
system.mem_ctrls33.power_state.pwrStateResidencyTicks::UNDEFINED   2147483750                       # Cumulative time (in ticks) in various power states (Tick)
system.mem_ctrls34.power_state.pwrStateResidencyTicks::UNDEFINED   2147483750                       # Cumulative time (in ticks) in various power states (Tick)
system.mem_ctrls35.power_state.pwrStateResidencyTicks::UNDEFINED   2147483750                       # Cumulative time (in ticks) in various power states (Tick)
system.mem_ctrls36.power_state.pwrStateResidencyTicks::UNDEFINED   2147483750                       # Cumulative time (in ticks) in various power states (Tick)
system.mem_ctrls37.power_state.pwrStateResidencyTicks::UNDEFINED   2147483750                       # Cumulative time (in ticks) in various power states (Tick)
system.mem_ctrls38.power_state.pwrStateResidencyTicks::UNDEFINED   2147483750                       # Cumulative time (in ticks) in various power states (Tick)
system.mem_ctrls39.power_state.pwrStateResidencyTicks::UNDEFINED   2147483750                       # Cumulative time (in ticks) in various power states (Tick)
system.mem_ctrls4.power_state.pwrStateResidencyTicks::UNDEFINED   2147483750                       # Cumulative time (in ticks) in various power states (Tick)
system.mem_ctrls40.power_state.pwrStateResidencyTicks::UNDEFINED   2147483750                       # Cumulative time (in ticks) in various power states (Tick)
system.mem_ctrls41.power_state.pwrStateResidencyTicks::UNDEFINED   2147483750                       # Cumulative time (in ticks) in various power states (Tick)
system.mem_ctrls42.power_state.pwrStateResidencyTicks::UNDEFINED   2147483750                       # Cumulative time (in ticks) in various power states (Tick)
system.mem_ctrls43.power_state.pwrStateResidencyTicks::UNDEFINED   2147483750                       # Cumulative time (in ticks) in various power states (Tick)
system.mem_ctrls44.power_state.pwrStateResidencyTicks::UNDEFINED   2147483750                       # Cumulative time (in ticks) in various power states (Tick)
system.mem_ctrls45.power_state.pwrStateResidencyTicks::UNDEFINED   2147483750                       # Cumulative time (in ticks) in various power states (Tick)
system.mem_ctrls46.power_state.pwrStateResidencyTicks::UNDEFINED   2147483750                       # Cumulative time (in ticks) in various power states (Tick)
system.mem_ctrls47.power_state.pwrStateResidencyTicks::UNDEFINED   2147483750                       # Cumulative time (in ticks) in various power states (Tick)
system.mem_ctrls48.power_state.pwrStateResidencyTicks::UNDEFINED   2147483750                       # Cumulative time (in ticks) in various power states (Tick)
system.mem_ctrls49.power_state.pwrStateResidencyTicks::UNDEFINED   2147483750                       # Cumulative time (in ticks) in various power states (Tick)
system.mem_ctrls5.power_state.pwrStateResidencyTicks::UNDEFINED   2147483750                       # Cumulative time (in ticks) in various power states (Tick)
system.mem_ctrls50.power_state.pwrStateResidencyTicks::UNDEFINED   2147483750                       # Cumulative time (in ticks) in various power states (Tick)
system.mem_ctrls51.power_state.pwrStateResidencyTicks::UNDEFINED   2147483750                       # Cumulative time (in ticks) in various power states (Tick)
system.mem_ctrls52.power_state.pwrStateResidencyTicks::UNDEFINED   2147483750                       # Cumulative time (in ticks) in various power states (Tick)
system.mem_ctrls53.power_state.pwrStateResidencyTicks::UNDEFINED   2147483750                       # Cumulative time (in ticks) in various power states (Tick)
system.mem_ctrls54.power_state.pwrStateResidencyTicks::UNDEFINED   2147483750                       # Cumulative time (in ticks) in various power states (Tick)
system.mem_ctrls55.power_state.pwrStateResidencyTicks::UNDEFINED   2147483750                       # Cumulative time (in ticks) in various power states (Tick)
system.mem_ctrls56.power_state.pwrStateResidencyTicks::UNDEFINED   2147483750                       # Cumulative time (in ticks) in various power states (Tick)
system.mem_ctrls57.power_state.pwrStateResidencyTicks::UNDEFINED   2147483750                       # Cumulative time (in ticks) in various power states (Tick)
system.mem_ctrls58.power_state.pwrStateResidencyTicks::UNDEFINED   2147483750                       # Cumulative time (in ticks) in various power states (Tick)
system.mem_ctrls59.power_state.pwrStateResidencyTicks::UNDEFINED   2147483750                       # Cumulative time (in ticks) in various power states (Tick)
system.mem_ctrls6.power_state.pwrStateResidencyTicks::UNDEFINED   2147483750                       # Cumulative time (in ticks) in various power states (Tick)
system.mem_ctrls60.power_state.pwrStateResidencyTicks::UNDEFINED   2147483750                       # Cumulative time (in ticks) in various power states (Tick)
system.mem_ctrls61.power_state.pwrStateResidencyTicks::UNDEFINED   2147483750                       # Cumulative time (in ticks) in various power states (Tick)
system.mem_ctrls62.power_state.pwrStateResidencyTicks::UNDEFINED   2147483750                       # Cumulative time (in ticks) in various power states (Tick)
system.mem_ctrls63.power_state.pwrStateResidencyTicks::UNDEFINED   2147483750                       # Cumulative time (in ticks) in various power states (Tick)
system.mem_ctrls64.power_state.pwrStateResidencyTicks::UNDEFINED   2147483750                       # Cumulative time (in ticks) in various power states (Tick)
system.mem_ctrls65.power_state.pwrStateResidencyTicks::UNDEFINED   2147483750                       # Cumulative time (in ticks) in various power states (Tick)
system.mem_ctrls66.power_state.pwrStateResidencyTicks::UNDEFINED   2147483750                       # Cumulative time (in ticks) in various power states (Tick)
system.mem_ctrls67.power_state.pwrStateResidencyTicks::UNDEFINED   2147483750                       # Cumulative time (in ticks) in various power states (Tick)
system.mem_ctrls68.power_state.pwrStateResidencyTicks::UNDEFINED   2147483750                       # Cumulative time (in ticks) in various power states (Tick)
system.mem_ctrls69.power_state.pwrStateResidencyTicks::UNDEFINED   2147483750                       # Cumulative time (in ticks) in various power states (Tick)
system.mem_ctrls7.power_state.pwrStateResidencyTicks::UNDEFINED   2147483750                       # Cumulative time (in ticks) in various power states (Tick)
system.mem_ctrls70.power_state.pwrStateResidencyTicks::UNDEFINED   2147483750                       # Cumulative time (in ticks) in various power states (Tick)
system.mem_ctrls71.power_state.pwrStateResidencyTicks::UNDEFINED   2147483750                       # Cumulative time (in ticks) in various power states (Tick)
system.mem_ctrls72.power_state.pwrStateResidencyTicks::UNDEFINED   2147483750                       # Cumulative time (in ticks) in various power states (Tick)
system.mem_ctrls73.power_state.pwrStateResidencyTicks::UNDEFINED   2147483750                       # Cumulative time (in ticks) in various power states (Tick)
system.mem_ctrls74.power_state.pwrStateResidencyTicks::UNDEFINED   2147483750                       # Cumulative time (in ticks) in various power states (Tick)
system.mem_ctrls75.power_state.pwrStateResidencyTicks::UNDEFINED   2147483750                       # Cumulative time (in ticks) in various power states (Tick)
system.mem_ctrls76.power_state.pwrStateResidencyTicks::UNDEFINED   2147483750                       # Cumulative time (in ticks) in various power states (Tick)
system.mem_ctrls77.power_state.pwrStateResidencyTicks::UNDEFINED   2147483750                       # Cumulative time (in ticks) in various power states (Tick)
system.mem_ctrls78.power_state.pwrStateResidencyTicks::UNDEFINED   2147483750                       # Cumulative time (in ticks) in various power states (Tick)
system.mem_ctrls79.power_state.pwrStateResidencyTicks::UNDEFINED   2147483750                       # Cumulative time (in ticks) in various power states (Tick)
system.mem_ctrls8.power_state.pwrStateResidencyTicks::UNDEFINED   2147483750                       # Cumulative time (in ticks) in various power states (Tick)
system.mem_ctrls80.power_state.pwrStateResidencyTicks::UNDEFINED   2147483750                       # Cumulative time (in ticks) in various power states (Tick)
system.mem_ctrls81.power_state.pwrStateResidencyTicks::UNDEFINED   2147483750                       # Cumulative time (in ticks) in various power states (Tick)
system.mem_ctrls82.power_state.pwrStateResidencyTicks::UNDEFINED   2147483750                       # Cumulative time (in ticks) in various power states (Tick)
system.mem_ctrls83.power_state.pwrStateResidencyTicks::UNDEFINED   2147483750                       # Cumulative time (in ticks) in various power states (Tick)
system.mem_ctrls84.power_state.pwrStateResidencyTicks::UNDEFINED   2147483750                       # Cumulative time (in ticks) in various power states (Tick)
system.mem_ctrls85.power_state.pwrStateResidencyTicks::UNDEFINED   2147483750                       # Cumulative time (in ticks) in various power states (Tick)
system.mem_ctrls86.power_state.pwrStateResidencyTicks::UNDEFINED   2147483750                       # Cumulative time (in ticks) in various power states (Tick)
system.mem_ctrls87.power_state.pwrStateResidencyTicks::UNDEFINED   2147483750                       # Cumulative time (in ticks) in various power states (Tick)
system.mem_ctrls88.power_state.pwrStateResidencyTicks::UNDEFINED   2147483750                       # Cumulative time (in ticks) in various power states (Tick)
system.mem_ctrls89.power_state.pwrStateResidencyTicks::UNDEFINED   2147483750                       # Cumulative time (in ticks) in various power states (Tick)
system.mem_ctrls9.power_state.pwrStateResidencyTicks::UNDEFINED   2147483750                       # Cumulative time (in ticks) in various power states (Tick)
system.mem_ctrls90.power_state.pwrStateResidencyTicks::UNDEFINED   2147483750                       # Cumulative time (in ticks) in various power states (Tick)
system.mem_ctrls91.power_state.pwrStateResidencyTicks::UNDEFINED   2147483750                       # Cumulative time (in ticks) in various power states (Tick)
system.mem_ctrls92.power_state.pwrStateResidencyTicks::UNDEFINED   2147483750                       # Cumulative time (in ticks) in various power states (Tick)
system.mem_ctrls93.power_state.pwrStateResidencyTicks::UNDEFINED   2147483750                       # Cumulative time (in ticks) in various power states (Tick)
system.mem_ctrls94.power_state.pwrStateResidencyTicks::UNDEFINED   2147483750                       # Cumulative time (in ticks) in various power states (Tick)
system.mem_ctrls95.power_state.pwrStateResidencyTicks::UNDEFINED   2147483750                       # Cumulative time (in ticks) in various power states (Tick)
system.mem_ctrls96.power_state.pwrStateResidencyTicks::UNDEFINED   2147483750                       # Cumulative time (in ticks) in various power states (Tick)
system.mem_ctrls97.power_state.pwrStateResidencyTicks::UNDEFINED   2147483750                       # Cumulative time (in ticks) in various power states (Tick)
system.mem_ctrls98.power_state.pwrStateResidencyTicks::UNDEFINED   2147483750                       # Cumulative time (in ticks) in various power states (Tick)
system.mem_ctrls99.power_state.pwrStateResidencyTicks::UNDEFINED   2147483750                       # Cumulative time (in ticks) in various power states (Tick)
system.ruby.m_outstandReqHistSeqr::bucket_size            1                       (Unspecified)
system.ruby.m_outstandReqHistSeqr::max_bucket            9                       (Unspecified)
system.ruby.m_outstandReqHistSeqr::samples     27456780                       (Unspecified)
system.ruby.m_outstandReqHistSeqr::mean             1                       (Unspecified)
system.ruby.m_outstandReqHistSeqr::gmean            1                       (Unspecified)
system.ruby.m_outstandReqHistSeqr        |           0      0.00%      0.00% |    27456780    100.00%    100.00% |           0      0.00%    100.00% |           0      0.00%    100.00% |           0      0.00%    100.00% |           0      0.00%    100.00% |           0      0.00%    100.00% |           0      0.00%    100.00% |           0      0.00%    100.00% |           0      0.00%    100.00% (Unspecified)
system.ruby.m_outstandReqHistSeqr::total     27456780                       (Unspecified)
system.ruby.m_latencyHistSeqr::bucket_size            1                       (Unspecified)
system.ruby.m_latencyHistSeqr::max_bucket            9                       (Unspecified)
system.ruby.m_latencyHistSeqr::samples       27456775                       (Unspecified)
system.ruby.m_latencyHistSeqr::mean                 1                       (Unspecified)
system.ruby.m_latencyHistSeqr::gmean                1                       (Unspecified)
system.ruby.m_latencyHistSeqr            |           0      0.00%      0.00% |    27456775    100.00%    100.00% |           0      0.00%    100.00% |           0      0.00%    100.00% |           0      0.00%    100.00% |           0      0.00%    100.00% |           0      0.00%    100.00% |           0      0.00%    100.00% |           0      0.00%    100.00% |           0      0.00%    100.00% (Unspecified)
system.ruby.m_latencyHistSeqr::total         27456775                       (Unspecified)
system.ruby.m_hitLatencyHistSeqr::bucket_size            1                       (Unspecified)
system.ruby.m_hitLatencyHistSeqr::max_bucket            9                       (Unspecified)
system.ruby.m_hitLatencyHistSeqr::samples     27456775                       (Unspecified)
system.ruby.m_hitLatencyHistSeqr::mean              1                       (Unspecified)
system.ruby.m_hitLatencyHistSeqr::gmean             1                       (Unspecified)
system.ruby.m_hitLatencyHistSeqr         |           0      0.00%      0.00% |    27456775    100.00%    100.00% |           0      0.00%    100.00% |           0      0.00%    100.00% |           0      0.00%    100.00% |           0      0.00%    100.00% |           0      0.00%    100.00% |           0      0.00%    100.00% |           0      0.00%    100.00% |           0      0.00%    100.00% (Unspecified)
system.ruby.m_hitLatencyHistSeqr::total      27456775                       (Unspecified)
system.ruby.Directory_Controller.Receive_Request |       85391      0.62%      0.62% |       85878      0.63%      1.25% |       85697      0.62%      1.87% |       85639      0.62%      2.50% |       85979      0.63%      3.12% |       85901      0.63%      3.75% |       85937      0.63%      4.37% |       86143      0.63%      5.00% |       86379      0.63%      5.63% |       85769      0.62%      6.26% |       85520      0.62%      6.88% |       85766      0.62%      7.50% |       85490      0.62%      8.13% |       85558      0.62%      8.75% |       85646      0.62%      9.37% |       85454      0.62%     10.00% |       85782      0.62%     10.62% |       86161      0.63%     11.25% |       85857      0.63%     11.87% |       85895      0.63%     12.50% |       86247      0.63%     13.13% |       85745      0.62%     13.75% |       86054      0.63%     14.38% |       85576      0.62%     15.00% |       85585      0.62%     15.63% |       85786      0.62%     16.25% |       85769      0.62%     16.87% |       86263      0.63%     17.50% |       85904      0.63%     18.13% |       86346      0.63%     18.76% |       85815      0.63%     19.38% |       85920      0.63%     20.01% |       86076      0.63%     20.64% |       85635      0.62%     21.26% |       85601      0.62%     21.88% |       85616      0.62%     22.51% |       85530      0.62%     23.13% |       85505      0.62%     23.75% |       85840      0.63%     24.38% |       85561      0.62%     25.00% |       85884      0.63%     25.63% |       85573      0.62%     26.25% |       85982      0.63%     26.88% |       86147      0.63%     27.50% |       85558      0.62%     28.13% |       86026      0.63%     28.75% |       85784      0.62%     29.38% |       85479      0.62%     30.00% |       85590      0.62%     30.63% |       85998      0.63%     31.25% |       85740      0.62%     31.88% |       85707      0.62%     32.50% |       85795      0.62%     33.13% |       85779      0.62%     33.75% |       85735      0.62%     34.37% |       85812      0.63%     35.00% |       85499      0.62%     35.62% |       85831      0.63%     36.25% |       85830      0.63%     36.87% |       86128      0.63%     37.50% |       85856      0.63%     38.13% |       85253      0.62%     38.75% |       85839      0.63%     39.37% |       86031      0.63%     40.00% |       86012      0.63%     40.63% |       85827      0.63%     41.25% |       86138      0.63%     41.88% |       85685      0.62%     42.50% |       85370      0.62%     43.12% |       85746      0.62%     43.75% |       85812      0.63%     44.37% |       86144      0.63%     45.00% |       85962      0.63%     45.63% |       85533      0.62%     46.25% |       85695      0.62%     46.87% |       86167      0.63%     47.50% |       86509      0.63%     48.13% |       85435      0.62%     48.75% |       85757      0.62%     49.38% |       85942      0.63%     50.01% |       85599      0.62%     50.63% |       85487      0.62%     51.25% |       85301      0.62%     51.87% |       86078      0.63%     52.50% |       85517      0.62%     53.12% |       85913      0.63%     53.75% |       85743      0.62%     54.37% |       86128      0.63%     55.00% |       86385      0.63%     55.63% |       85595      0.62%     56.25% |       85757      0.62%     56.88% |       86219      0.63%     57.51% |       86222      0.63%     58.13% |       85881      0.63%     58.76% |       86207      0.63%     59.39% |       85658      0.62%     60.01% |       86001      0.63%     60.64% |       85840      0.63%     61.26% |       85686      0.62%     61.89% |       85789      0.62%     62.51% |       85999      0.63%     63.14% |       85433      0.62%     63.76% |       85655      0.62%     64.39% |       85708      0.62%     65.01% |       85721      0.62%     65.63% |       85644      0.62%     66.26% |       86038      0.63%     66.88% |       85917      0.63%     67.51% |       85432      0.62%     68.13% |       85654      0.62%     68.76% |       85919      0.63%     69.38% |       85991      0.63%     70.01% |       86038      0.63%     70.64% |       85555      0.62%     71.26% |       86106      0.63%     71.89% |       85567      0.62%     72.51% |       86056      0.63%     73.14% |       85481      0.62%     73.76% |       85901      0.63%     74.38% |       85403      0.62%     75.01% |       84835      0.62%     75.62% |       85859      0.63%     76.25% |       85846      0.63%     76.88% |       85882      0.63%     77.50% |       85515      0.62%     78.12% |       85823      0.63%     78.75% |       85470      0.62%     79.37% |       85852      0.63%     80.00% |       85687      0.62%     80.62% |       85921      0.63%     81.25% |       85626      0.62%     81.87% |       86006      0.63%     82.50% |       85472      0.62%     83.12% |       85918      0.63%     83.75% |       85613      0.62%     84.37% |       85671      0.62%     84.99% |       85205      0.62%     85.61% |       85408      0.62%     86.24% |       85845      0.63%     86.86% |       86167      0.63%     87.49% |       86186      0.63%     88.12% |       85899      0.63%     88.74% |       85648      0.62%     89.37% |       85731      0.62%     89.99% |       84945      0.62%     90.61% |       85834      0.63%     91.24% |       85851      0.63%     91.86% |       85661      0.62%     92.48% |       85570      0.62%     93.11% |       86127      0.63%     93.74% |       86144      0.63%     94.36% |       85756      0.62%     94.99% |       86194      0.63%     95.62% |       86161      0.63%     96.24% |       85891      0.63%     96.87% |       86236      0.63%     97.50% |       85762      0.62%     98.12% |       85705      0.62%     98.75% |       86264      0.63%     99.37% |       85871      0.63%    100.00% (Unspecified)
system.ruby.Directory_Controller.Receive_Request::total     13728087                       (Unspecified)
system.ruby.Directory_Controller.Receive_Response |       59939      0.63%      0.63% |       59694      0.62%      1.25% |       60098      0.63%      1.88% |       59536      0.62%      2.50% |       59591      0.62%      3.12% |       59744      0.62%      3.75% |       59645      0.62%      4.37% |       59867      0.63%      4.99% |       60370      0.63%      5.62% |       59698      0.62%      6.25% |       59993      0.63%      6.88% |       60206      0.63%      7.50% |       59541      0.62%      8.13% |       59671      0.62%      8.75% |       59562      0.62%      9.37% |       59301      0.62%      9.99% |       59645      0.62%     10.61% |       59628      0.62%     11.24% |       59539      0.62%     11.86% |       59483      0.62%     12.48% |       59658      0.62%     13.10% |       60187      0.63%     13.73% |       59710      0.62%     14.36% |       59830      0.62%     14.98% |       60045      0.63%     15.61% |       59616      0.62%     16.23% |       59982      0.63%     16.86% |       59505      0.62%     17.48% |       59582      0.62%     18.10% |       60049      0.63%     18.73% |       59720      0.62%     19.35% |       59773      0.62%     19.98% |       59694      0.62%     20.60% |       60118      0.63%     21.23% |       60054      0.63%     21.86% |       59545      0.62%     22.48% |       60278      0.63%     23.11% |       59634      0.62%     23.73% |       59889      0.63%     24.36% |       59833      0.63%     24.98% |       59925      0.63%     25.61% |       59789      0.62%     26.23% |       59760      0.62%     26.86% |       59766      0.62%     27.48% |       59985      0.63%     28.11% |       60176      0.63%     28.73% |       60085      0.63%     29.36% |       60123      0.63%     29.99% |       59652      0.62%     30.61% |       58978      0.62%     31.23% |       60016      0.63%     31.86% |       59703      0.62%     32.48% |       59840      0.63%     33.11% |       60065      0.63%     33.73% |       59554      0.62%     34.35% |       60063      0.63%     34.98% |       59567      0.62%     35.60% |       59233      0.62%     36.22% |       60230      0.63%     36.85% |       60229      0.63%     37.48% |       59788      0.62%     38.11% |       59725      0.62%     38.73% |       59710      0.62%     39.35% |       60008      0.63%     39.98% |       59699      0.62%     40.60% |       60172      0.63%     41.23% |       59872      0.63%     41.86% |       59382      0.62%     42.48% |       59924      0.63%     43.10% |       59768      0.62%     43.73% |       59918      0.63%     44.35% |       59747      0.62%     44.98% |       59766      0.62%     45.60% |       59494      0.62%     46.22% |       60139      0.63%     46.85% |       59843      0.63%     47.48% |       59863      0.63%     48.10% |       59719      0.62%     48.73% |       59787      0.62%     49.35% |       59779      0.62%     49.98% |       59910      0.63%     50.60% |       60244      0.63%     51.23% |       59635      0.62%     51.85% |       59648      0.62%     52.48% |       59630      0.62%     53.10% |       59899      0.63%     53.73% |       59912      0.63%     54.35% |       59802      0.62%     54.98% |       59978      0.63%     55.60% |       59768      0.62%     56.23% |       59389      0.62%     56.85% |       59670      0.62%     57.47% |       59991      0.63%     58.10% |       59800      0.62%     58.72% |       59725      0.62%     59.35% |       59631      0.62%     59.97% |       59853      0.63%     60.59% |       60020      0.63%     61.22% |       59918      0.63%     61.85% |       59682      0.62%     62.47% |       60198      0.63%     63.10% |       60257      0.63%     63.73% |       60107      0.63%     64.36% |       59871      0.63%     64.98% |       59684      0.62%     65.61% |       60556      0.63%     66.24% |       59820      0.62%     66.86% |       59983      0.63%     67.49% |       59689      0.62%     68.11% |       59715      0.62%     68.74% |       59499      0.62%     69.36% |       60205      0.63%     69.99% |       60471      0.63%     70.62% |       59914      0.63%     71.24% |       60018      0.63%     71.87% |       60148      0.63%     72.50% |       60145      0.63%     73.13% |       59744      0.62%     73.75% |       59968      0.63%     74.38% |       59689      0.62%     75.00% |       60165      0.63%     75.63% |       59757      0.62%     76.25% |       59670      0.62%     76.88% |       59816      0.62%     77.50% |       59867      0.63%     78.13% |       59957      0.63%     78.75% |       59909      0.63%     79.38% |       59596      0.62%     80.00% |       59790      0.62%     80.63% |       59916      0.63%     81.25% |       60221      0.63%     81.88% |       59462      0.62%     82.50% |       59875      0.63%     83.13% |       59983      0.63%     83.76% |       59575      0.62%     84.38% |       59817      0.62%     85.00% |       60436      0.63%     85.63% |       59758      0.62%     86.26% |       59850      0.63%     86.88% |       59901      0.63%     87.51% |       59824      0.62%     88.13% |       59671      0.62%     88.76% |       60020      0.63%     89.38% |       59907      0.63%     90.01% |       59618      0.62%     90.63% |       60175      0.63%     91.26% |       59815      0.62%     91.89% |       60032      0.63%     92.51% |       59515      0.62%     93.13% |       60151      0.63%     93.76% |       59476      0.62%     94.38% |       59866      0.63%     95.01% |       59410      0.62%     95.63% |       59525      0.62%     96.25% |       59845      0.63%     96.88% |       59874      0.63%     97.50% |       59660      0.62%     98.13% |       59483      0.62%     98.75% |       60144      0.63%     99.38% |       59793      0.62%    100.00% (Unspecified)
system.ruby.Directory_Controller.Receive_Response::total      9573206                       (Unspecified)
system.ruby.Directory_Controller.I.Receive_Request |       85391      0.62%      0.62% |       85878      0.63%      1.25% |       85697      0.62%      1.87% |       85639      0.62%      2.50% |       85979      0.63%      3.12% |       85901      0.63%      3.75% |       85937      0.63%      4.37% |       86143      0.63%      5.00% |       86379      0.63%      5.63% |       85769      0.62%      6.26% |       85520      0.62%      6.88% |       85766      0.62%      7.50% |       85490      0.62%      8.13% |       85558      0.62%      8.75% |       85646      0.62%      9.37% |       85454      0.62%     10.00% |       85782      0.62%     10.62% |       86161      0.63%     11.25% |       85857      0.63%     11.87% |       85895      0.63%     12.50% |       86247      0.63%     13.13% |       85745      0.62%     13.75% |       86054      0.63%     14.38% |       85576      0.62%     15.00% |       85585      0.62%     15.63% |       85786      0.62%     16.25% |       85769      0.62%     16.87% |       86263      0.63%     17.50% |       85904      0.63%     18.13% |       86346      0.63%     18.76% |       85815      0.63%     19.38% |       85920      0.63%     20.01% |       86076      0.63%     20.64% |       85635      0.62%     21.26% |       85601      0.62%     21.88% |       85616      0.62%     22.51% |       85530      0.62%     23.13% |       85505      0.62%     23.75% |       85840      0.63%     24.38% |       85561      0.62%     25.00% |       85884      0.63%     25.63% |       85573      0.62%     26.25% |       85982      0.63%     26.88% |       86147      0.63%     27.50% |       85558      0.62%     28.13% |       86026      0.63%     28.75% |       85784      0.62%     29.38% |       85479      0.62%     30.00% |       85590      0.62%     30.63% |       85998      0.63%     31.25% |       85740      0.62%     31.88% |       85707      0.62%     32.50% |       85795      0.62%     33.13% |       85779      0.62%     33.75% |       85735      0.62%     34.37% |       85812      0.63%     35.00% |       85499      0.62%     35.62% |       85831      0.63%     36.25% |       85830      0.63%     36.87% |       86128      0.63%     37.50% |       85856      0.63%     38.13% |       85253      0.62%     38.75% |       85839      0.63%     39.37% |       86031      0.63%     40.00% |       86012      0.63%     40.63% |       85827      0.63%     41.25% |       86138      0.63%     41.88% |       85685      0.62%     42.50% |       85370      0.62%     43.12% |       85746      0.62%     43.75% |       85812      0.63%     44.37% |       86144      0.63%     45.00% |       85962      0.63%     45.63% |       85533      0.62%     46.25% |       85695      0.62%     46.87% |       86167      0.63%     47.50% |       86509      0.63%     48.13% |       85435      0.62%     48.75% |       85757      0.62%     49.38% |       85942      0.63%     50.01% |       85599      0.62%     50.63% |       85487      0.62%     51.25% |       85301      0.62%     51.87% |       86078      0.63%     52.50% |       85517      0.62%     53.12% |       85913      0.63%     53.75% |       85743      0.62%     54.37% |       86128      0.63%     55.00% |       86385      0.63%     55.63% |       85595      0.62%     56.25% |       85757      0.62%     56.88% |       86219      0.63%     57.51% |       86222      0.63%     58.13% |       85881      0.63%     58.76% |       86207      0.63%     59.39% |       85658      0.62%     60.01% |       86001      0.63%     60.64% |       85840      0.63%     61.26% |       85686      0.62%     61.89% |       85789      0.62%     62.51% |       85999      0.63%     63.14% |       85433      0.62%     63.76% |       85655      0.62%     64.39% |       85708      0.62%     65.01% |       85721      0.62%     65.63% |       85644      0.62%     66.26% |       86038      0.63%     66.88% |       85917      0.63%     67.51% |       85432      0.62%     68.13% |       85654      0.62%     68.76% |       85919      0.63%     69.38% |       85991      0.63%     70.01% |       86038      0.63%     70.64% |       85555      0.62%     71.26% |       86106      0.63%     71.89% |       85567      0.62%     72.51% |       86056      0.63%     73.14% |       85481      0.62%     73.76% |       85901      0.63%     74.38% |       85403      0.62%     75.01% |       84835      0.62%     75.62% |       85859      0.63%     76.25% |       85846      0.63%     76.88% |       85882      0.63%     77.50% |       85515      0.62%     78.12% |       85823      0.63%     78.75% |       85470      0.62%     79.37% |       85852      0.63%     80.00% |       85687      0.62%     80.62% |       85921      0.63%     81.25% |       85626      0.62%     81.87% |       86006      0.63%     82.50% |       85472      0.62%     83.12% |       85918      0.63%     83.75% |       85613      0.62%     84.37% |       85671      0.62%     84.99% |       85205      0.62%     85.61% |       85408      0.62%     86.24% |       85845      0.63%     86.86% |       86167      0.63%     87.49% |       86186      0.63%     88.12% |       85899      0.63%     88.74% |       85648      0.62%     89.37% |       85731      0.62%     89.99% |       84945      0.62%     90.61% |       85834      0.63%     91.24% |       85851      0.63%     91.86% |       85661      0.62%     92.48% |       85570      0.62%     93.11% |       86127      0.63%     93.74% |       86144      0.63%     94.36% |       85756      0.62%     94.99% |       86194      0.63%     95.62% |       86161      0.63%     96.24% |       85891      0.63%     96.87% |       86236      0.63%     97.50% |       85762      0.62%     98.12% |       85705      0.62%     98.75% |       86264      0.63%     99.37% |       85871      0.63%    100.00% (Unspecified)
system.ruby.Directory_Controller.I.Receive_Request::total     13728087                       (Unspecified)
system.ruby.Directory_Controller.I.Receive_Response |       59939      0.63%      0.63% |       59694      0.62%      1.25% |       60098      0.63%      1.88% |       59536      0.62%      2.50% |       59591      0.62%      3.12% |       59744      0.62%      3.75% |       59645      0.62%      4.37% |       59867      0.63%      4.99% |       60370      0.63%      5.62% |       59698      0.62%      6.25% |       59993      0.63%      6.88% |       60206      0.63%      7.50% |       59541      0.62%      8.13% |       59671      0.62%      8.75% |       59562      0.62%      9.37% |       59301      0.62%      9.99% |       59645      0.62%     10.61% |       59628      0.62%     11.24% |       59539      0.62%     11.86% |       59483      0.62%     12.48% |       59658      0.62%     13.10% |       60187      0.63%     13.73% |       59710      0.62%     14.36% |       59830      0.62%     14.98% |       60045      0.63%     15.61% |       59616      0.62%     16.23% |       59982      0.63%     16.86% |       59505      0.62%     17.48% |       59582      0.62%     18.10% |       60049      0.63%     18.73% |       59720      0.62%     19.35% |       59773      0.62%     19.98% |       59694      0.62%     20.60% |       60118      0.63%     21.23% |       60054      0.63%     21.86% |       59545      0.62%     22.48% |       60278      0.63%     23.11% |       59634      0.62%     23.73% |       59889      0.63%     24.36% |       59833      0.63%     24.98% |       59925      0.63%     25.61% |       59789      0.62%     26.23% |       59760      0.62%     26.86% |       59766      0.62%     27.48% |       59985      0.63%     28.11% |       60176      0.63%     28.73% |       60085      0.63%     29.36% |       60123      0.63%     29.99% |       59652      0.62%     30.61% |       58978      0.62%     31.23% |       60016      0.63%     31.86% |       59703      0.62%     32.48% |       59840      0.63%     33.11% |       60065      0.63%     33.73% |       59554      0.62%     34.35% |       60063      0.63%     34.98% |       59567      0.62%     35.60% |       59233      0.62%     36.22% |       60230      0.63%     36.85% |       60229      0.63%     37.48% |       59788      0.62%     38.11% |       59725      0.62%     38.73% |       59710      0.62%     39.35% |       60008      0.63%     39.98% |       59699      0.62%     40.60% |       60172      0.63%     41.23% |       59872      0.63%     41.86% |       59382      0.62%     42.48% |       59924      0.63%     43.10% |       59768      0.62%     43.73% |       59918      0.63%     44.35% |       59747      0.62%     44.98% |       59766      0.62%     45.60% |       59494      0.62%     46.22% |       60139      0.63%     46.85% |       59843      0.63%     47.48% |       59863      0.63%     48.10% |       59719      0.62%     48.73% |       59787      0.62%     49.35% |       59779      0.62%     49.98% |       59910      0.63%     50.60% |       60244      0.63%     51.23% |       59635      0.62%     51.85% |       59648      0.62%     52.48% |       59630      0.62%     53.10% |       59899      0.63%     53.73% |       59912      0.63%     54.35% |       59802      0.62%     54.98% |       59978      0.63%     55.60% |       59768      0.62%     56.23% |       59389      0.62%     56.85% |       59670      0.62%     57.47% |       59991      0.63%     58.10% |       59800      0.62%     58.72% |       59725      0.62%     59.35% |       59631      0.62%     59.97% |       59853      0.63%     60.59% |       60020      0.63%     61.22% |       59918      0.63%     61.85% |       59682      0.62%     62.47% |       60198      0.63%     63.10% |       60257      0.63%     63.73% |       60107      0.63%     64.36% |       59871      0.63%     64.98% |       59684      0.62%     65.61% |       60556      0.63%     66.24% |       59820      0.62%     66.86% |       59983      0.63%     67.49% |       59689      0.62%     68.11% |       59715      0.62%     68.74% |       59499      0.62%     69.36% |       60205      0.63%     69.99% |       60471      0.63%     70.62% |       59914      0.63%     71.24% |       60018      0.63%     71.87% |       60148      0.63%     72.50% |       60145      0.63%     73.13% |       59744      0.62%     73.75% |       59968      0.63%     74.38% |       59689      0.62%     75.00% |       60165      0.63%     75.63% |       59757      0.62%     76.25% |       59670      0.62%     76.88% |       59816      0.62%     77.50% |       59867      0.63%     78.13% |       59957      0.63%     78.75% |       59909      0.63%     79.38% |       59596      0.62%     80.00% |       59790      0.62%     80.63% |       59916      0.63%     81.25% |       60221      0.63%     81.88% |       59462      0.62%     82.50% |       59875      0.63%     83.13% |       59983      0.63%     83.76% |       59575      0.62%     84.38% |       59817      0.62%     85.00% |       60436      0.63%     85.63% |       59758      0.62%     86.26% |       59850      0.63%     86.88% |       59901      0.63%     87.51% |       59824      0.62%     88.13% |       59671      0.62%     88.76% |       60020      0.63%     89.38% |       59907      0.63%     90.01% |       59618      0.62%     90.63% |       60175      0.63%     91.26% |       59815      0.62%     91.89% |       60032      0.63%     92.51% |       59515      0.62%     93.13% |       60151      0.63%     93.76% |       59476      0.62%     94.38% |       59866      0.63%     95.01% |       59410      0.62%     95.63% |       59525      0.62%     96.25% |       59845      0.63%     96.88% |       59874      0.63%     97.50% |       59660      0.62%     98.13% |       59483      0.62%     98.75% |       60144      0.63%     99.38% |       59793      0.62%    100.00% (Unspecified)
system.ruby.Directory_Controller.I.Receive_Response::total      9573206                       (Unspecified)
system.ruby.L1Cache_Controller.Request   |      342901      2.50%      2.50% |      341979      2.49%      4.99% |      342782      2.50%      7.49% |      342978      2.50%      9.98% |      342952      2.50%     12.48% |      343829      2.50%     14.99% |      343850      2.50%     17.49% |      342757      2.50%     19.99% |      343766      2.50%     22.49% |      344696      2.51%     25.00% |      344142      2.51%     27.51% |      343243      2.50%     30.01% |      343675      2.50%     32.51% |      342001      2.49%     35.01% |      342300      2.49%     37.50% |      343684      2.50%     40.00% |      342418      2.49%     42.50% |      344249      2.51%     45.00% |      343050      2.50%     47.50% |      342073      2.49%     49.99% |      343211      2.50%     52.49% |      342907      2.50%     54.99% |      344562      2.51%     57.50% |      343250      2.50%     60.00% |      342161      2.49%     62.50% |      342742      2.50%     64.99% |      343138      2.50%     67.49% |      343139      2.50%     69.99% |      343819      2.50%     72.50% |      343456      2.50%     75.00% |      342748      2.50%     77.49% |      343411      2.50%     80.00% |      343109      2.50%     82.49% |      341793      2.49%     84.98% |      343618      2.50%     87.49% |      343980      2.51%     89.99% |      343607      2.50%     92.50% |      343122      2.50%     95.00% |      343814      2.50%     97.50% |      343211      2.50%    100.00% (Unspecified)
system.ruby.L1Cache_Controller.Request::total     13728123                       (Unspecified)
system.ruby.L1Cache_Controller.Response  |      343599      2.50%      2.50% |      342405      2.49%      5.00% |      343931      2.51%      7.50% |      342812      2.50%     10.00% |      342444      2.49%     12.49% |      343842      2.50%     15.00% |      344401      2.51%     17.51% |      343407      2.50%     20.01% |      342989      2.50%     22.51% |      344190      2.51%     25.01% |      342910      2.50%     27.51% |      343816      2.50%     30.02% |      343577      2.50%     32.52% |      343070      2.50%     35.02% |      344088      2.51%     37.52% |      342714      2.50%     40.02% |      342776      2.50%     42.52% |      343935      2.51%     45.02% |      342324      2.49%     47.52% |      344033      2.51%     50.02% |      343543      2.50%     52.52% |      342625      2.50%     55.02% |      343222      2.50%     57.52% |      342694      2.50%     60.02% |      343039      2.50%     62.51% |      342930      2.50%     65.01% |      344171      2.51%     67.52% |      342767      2.50%     70.02% |      343119      2.50%     72.52% |      342895      2.50%     75.01% |      343023      2.50%     77.51% |      342783      2.50%     80.01% |      342393      2.49%     82.50% |      343253      2.50%     85.00% |      342939      2.50%     87.50% |      342445      2.49%     90.00% |      344073      2.51%     92.50% |      343300      2.50%     95.00% |      343015      2.50%     97.50% |      343160      2.50%    100.00% (Unspecified)
system.ruby.L1Cache_Controller.Response::total     13728652                       (Unspecified)
system.ruby.L1Cache_Controller.I.Request |      342901      2.50%      2.50% |      341979      2.49%      4.99% |      342782      2.50%      7.49% |      342978      2.50%      9.98% |      342952      2.50%     12.48% |      343829      2.50%     14.99% |      343850      2.50%     17.49% |      342757      2.50%     19.99% |      343766      2.50%     22.49% |      344696      2.51%     25.00% |      344142      2.51%     27.51% |      343243      2.50%     30.01% |      343675      2.50%     32.51% |      342001      2.49%     35.01% |      342300      2.49%     37.50% |      343684      2.50%     40.00% |      342418      2.49%     42.50% |      344249      2.51%     45.00% |      343050      2.50%     47.50% |      342073      2.49%     49.99% |      343211      2.50%     52.49% |      342907      2.50%     54.99% |      344562      2.51%     57.50% |      343250      2.50%     60.00% |      342161      2.49%     62.50% |      342742      2.50%     64.99% |      343138      2.50%     67.49% |      343139      2.50%     69.99% |      343819      2.50%     72.50% |      343456      2.50%     75.00% |      342748      2.50%     77.49% |      343411      2.50%     80.00% |      343109      2.50%     82.49% |      341793      2.49%     84.98% |      343618      2.50%     87.49% |      343980      2.51%     89.99% |      343607      2.50%     92.50% |      343122      2.50%     95.00% |      343814      2.50%     97.50% |      343211      2.50%    100.00% (Unspecified)
system.ruby.L1Cache_Controller.I.Request::total     13728123                       (Unspecified)
system.ruby.L1Cache_Controller.I.Response |      343599      2.50%      2.50% |      342405      2.49%      5.00% |      343931      2.51%      7.50% |      342812      2.50%     10.00% |      342444      2.49%     12.49% |      343842      2.50%     15.00% |      344401      2.51%     17.51% |      343407      2.50%     20.01% |      342989      2.50%     22.51% |      344190      2.51%     25.01% |      342910      2.50%     27.51% |      343816      2.50%     30.02% |      343577      2.50%     32.52% |      343070      2.50%     35.02% |      344088      2.51%     37.52% |      342714      2.50%     40.02% |      342776      2.50%     42.52% |      343935      2.51%     45.02% |      342324      2.49%     47.52% |      344033      2.51%     50.02% |      343543      2.50%     52.52% |      342625      2.50%     55.02% |      343222      2.50%     57.52% |      342694      2.50%     60.02% |      343039      2.50%     62.51% |      342930      2.50%     65.01% |      344171      2.51%     67.52% |      342767      2.50%     70.02% |      343119      2.50%     72.52% |      342895      2.50%     75.01% |      343023      2.50%     77.51% |      342783      2.50%     80.01% |      342393      2.49%     82.50% |      343253      2.50%     85.00% |      342939      2.50%     87.50% |      342445      2.49%     90.00% |      344073      2.51%     92.50% |      343300      2.50%     95.00% |      343015      2.50%     97.50% |      343160      2.50%    100.00% (Unspecified)
system.ruby.L1Cache_Controller.I.Response::total     13728652                       (Unspecified)
system.ruby.RequestType.LD.latency_hist_seqr::bucket_size            1                       (Unspecified)
system.ruby.RequestType.LD.latency_hist_seqr::max_bucket            9                       (Unspecified)
system.ruby.RequestType.LD.latency_hist_seqr::samples     13728123                       (Unspecified)
system.ruby.RequestType.LD.latency_hist_seqr::mean            1                       (Unspecified)
system.ruby.RequestType.LD.latency_hist_seqr::gmean            1                       (Unspecified)
system.ruby.RequestType.LD.latency_hist_seqr |           0      0.00%      0.00% |    13728123    100.00%    100.00% |           0      0.00%    100.00% |           0      0.00%    100.00% |           0      0.00%    100.00% |           0      0.00%    100.00% |           0      0.00%    100.00% |           0      0.00%    100.00% |           0      0.00%    100.00% |           0      0.00%    100.00% (Unspecified)
system.ruby.RequestType.LD.latency_hist_seqr::total     13728123                       (Unspecified)
system.ruby.RequestType.LD.hit_latency_hist_seqr::bucket_size            1                       (Unspecified)
system.ruby.RequestType.LD.hit_latency_hist_seqr::max_bucket            9                       (Unspecified)
system.ruby.RequestType.LD.hit_latency_hist_seqr::samples     13728123                       (Unspecified)
system.ruby.RequestType.LD.hit_latency_hist_seqr::mean            1                       (Unspecified)
system.ruby.RequestType.LD.hit_latency_hist_seqr::gmean            1                       (Unspecified)
system.ruby.RequestType.LD.hit_latency_hist_seqr |           0      0.00%      0.00% |    13728123    100.00%    100.00% |           0      0.00%    100.00% |           0      0.00%    100.00% |           0      0.00%    100.00% |           0      0.00%    100.00% |           0      0.00%    100.00% |           0      0.00%    100.00% |           0      0.00%    100.00% |           0      0.00%    100.00% (Unspecified)
system.ruby.RequestType.LD.hit_latency_hist_seqr::total     13728123                       (Unspecified)
system.ruby.RequestType.ST.latency_hist_seqr::bucket_size            1                       (Unspecified)
system.ruby.RequestType.ST.latency_hist_seqr::max_bucket            9                       (Unspecified)
system.ruby.RequestType.ST.latency_hist_seqr::samples     13728652                       (Unspecified)
system.ruby.RequestType.ST.latency_hist_seqr::mean            1                       (Unspecified)
system.ruby.RequestType.ST.latency_hist_seqr::gmean            1                       (Unspecified)
system.ruby.RequestType.ST.latency_hist_seqr |           0      0.00%      0.00% |    13728652    100.00%    100.00% |           0      0.00%    100.00% |           0      0.00%    100.00% |           0      0.00%    100.00% |           0      0.00%    100.00% |           0      0.00%    100.00% |           0      0.00%    100.00% |           0      0.00%    100.00% |           0      0.00%    100.00% (Unspecified)
system.ruby.RequestType.ST.latency_hist_seqr::total     13728652                       (Unspecified)
system.ruby.RequestType.ST.hit_latency_hist_seqr::bucket_size            1                       (Unspecified)
system.ruby.RequestType.ST.hit_latency_hist_seqr::max_bucket            9                       (Unspecified)
system.ruby.RequestType.ST.hit_latency_hist_seqr::samples     13728652                       (Unspecified)
system.ruby.RequestType.ST.hit_latency_hist_seqr::mean            1                       (Unspecified)
system.ruby.RequestType.ST.hit_latency_hist_seqr::gmean            1                       (Unspecified)
system.ruby.RequestType.ST.hit_latency_hist_seqr |           0      0.00%      0.00% |    13728652    100.00%    100.00% |           0      0.00%    100.00% |           0      0.00%    100.00% |           0      0.00%    100.00% |           0      0.00%    100.00% |           0      0.00%    100.00% |           0      0.00%    100.00% |           0      0.00%    100.00% |           0      0.00%    100.00% (Unspecified)
system.ruby.RequestType.ST.hit_latency_hist_seqr::total     13728652                       (Unspecified)
system.ruby.clk_domain.clock                      250                       # Clock period in ticks (Tick)
system.ruby.dir_cntrl0.power_state.pwrStateResidencyTicks::UNDEFINED   2147483750                       # Cumulative time (in ticks) in various power states (Tick)
system.ruby.dir_cntrl0.requestToDir.m_msg_count        85391                       # Number of messages passed the buffer (Count)
system.ruby.dir_cntrl0.requestToDir.m_buf_msgs     0.009941                       # Average number of messages in buffer ((Count/Tick))
system.ruby.dir_cntrl0.responseToDir.m_msg_count        59939                       # Number of messages passed the buffer (Count)
system.ruby.dir_cntrl0.responseToDir.m_buf_msgs     0.006978                       # Average number of messages in buffer ((Count/Tick))
system.ruby.dir_cntrl1.power_state.pwrStateResidencyTicks::UNDEFINED   2147483750                       # Cumulative time (in ticks) in various power states (Tick)
system.ruby.dir_cntrl1.requestToDir.m_msg_count        85878                       # Number of messages passed the buffer (Count)
system.ruby.dir_cntrl1.requestToDir.m_buf_msgs     0.009998                       # Average number of messages in buffer ((Count/Tick))
system.ruby.dir_cntrl1.responseToDir.m_msg_count        59694                       # Number of messages passed the buffer (Count)
system.ruby.dir_cntrl1.responseToDir.m_buf_msgs     0.006949                       # Average number of messages in buffer ((Count/Tick))
system.ruby.dir_cntrl10.power_state.pwrStateResidencyTicks::UNDEFINED   2147483750                       # Cumulative time (in ticks) in various power states (Tick)
system.ruby.dir_cntrl10.requestToDir.m_msg_count        85520                       # Number of messages passed the buffer (Count)
system.ruby.dir_cntrl10.requestToDir.m_buf_msgs     0.009956                       # Average number of messages in buffer ((Count/Tick))
system.ruby.dir_cntrl10.responseToDir.m_msg_count        59993                       # Number of messages passed the buffer (Count)
system.ruby.dir_cntrl10.responseToDir.m_buf_msgs     0.006984                       # Average number of messages in buffer ((Count/Tick))
system.ruby.dir_cntrl100.power_state.pwrStateResidencyTicks::UNDEFINED   2147483750                       # Cumulative time (in ticks) in various power states (Tick)
system.ruby.dir_cntrl100.requestToDir.m_msg_count        85999                       # Number of messages passed the buffer (Count)
system.ruby.dir_cntrl100.requestToDir.m_buf_msgs     0.010012                       # Average number of messages in buffer ((Count/Tick))
system.ruby.dir_cntrl100.responseToDir.m_msg_count        60198                       # Number of messages passed the buffer (Count)
system.ruby.dir_cntrl100.responseToDir.m_buf_msgs     0.007008                       # Average number of messages in buffer ((Count/Tick))
system.ruby.dir_cntrl101.power_state.pwrStateResidencyTicks::UNDEFINED   2147483750                       # Cumulative time (in ticks) in various power states (Tick)
system.ruby.dir_cntrl101.requestToDir.m_msg_count        85433                       # Number of messages passed the buffer (Count)
system.ruby.dir_cntrl101.requestToDir.m_buf_msgs     0.009946                       # Average number of messages in buffer ((Count/Tick))
system.ruby.dir_cntrl101.responseToDir.m_msg_count        60257                       # Number of messages passed the buffer (Count)
system.ruby.dir_cntrl101.responseToDir.m_buf_msgs     0.007015                       # Average number of messages in buffer ((Count/Tick))
system.ruby.dir_cntrl102.power_state.pwrStateResidencyTicks::UNDEFINED   2147483750                       # Cumulative time (in ticks) in various power states (Tick)
system.ruby.dir_cntrl102.requestToDir.m_msg_count        85655                       # Number of messages passed the buffer (Count)
system.ruby.dir_cntrl102.requestToDir.m_buf_msgs     0.009972                       # Average number of messages in buffer ((Count/Tick))
system.ruby.dir_cntrl102.responseToDir.m_msg_count        60107                       # Number of messages passed the buffer (Count)
system.ruby.dir_cntrl102.responseToDir.m_buf_msgs     0.006997                       # Average number of messages in buffer ((Count/Tick))
system.ruby.dir_cntrl103.power_state.pwrStateResidencyTicks::UNDEFINED   2147483750                       # Cumulative time (in ticks) in various power states (Tick)
system.ruby.dir_cntrl103.requestToDir.m_msg_count        85708                       # Number of messages passed the buffer (Count)
system.ruby.dir_cntrl103.requestToDir.m_buf_msgs     0.009978                       # Average number of messages in buffer ((Count/Tick))
system.ruby.dir_cntrl103.responseToDir.m_msg_count        59871                       # Number of messages passed the buffer (Count)
system.ruby.dir_cntrl103.responseToDir.m_buf_msgs     0.006970                       # Average number of messages in buffer ((Count/Tick))
system.ruby.dir_cntrl104.power_state.pwrStateResidencyTicks::UNDEFINED   2147483750                       # Cumulative time (in ticks) in various power states (Tick)
system.ruby.dir_cntrl104.requestToDir.m_msg_count        85721                       # Number of messages passed the buffer (Count)
system.ruby.dir_cntrl104.requestToDir.m_buf_msgs     0.009979                       # Average number of messages in buffer ((Count/Tick))
system.ruby.dir_cntrl104.responseToDir.m_msg_count        59684                       # Number of messages passed the buffer (Count)
system.ruby.dir_cntrl104.responseToDir.m_buf_msgs     0.006948                       # Average number of messages in buffer ((Count/Tick))
system.ruby.dir_cntrl105.power_state.pwrStateResidencyTicks::UNDEFINED   2147483750                       # Cumulative time (in ticks) in various power states (Tick)
system.ruby.dir_cntrl105.requestToDir.m_msg_count        85644                       # Number of messages passed the buffer (Count)
system.ruby.dir_cntrl105.requestToDir.m_buf_msgs     0.009970                       # Average number of messages in buffer ((Count/Tick))
system.ruby.dir_cntrl105.responseToDir.m_msg_count        60556                       # Number of messages passed the buffer (Count)
system.ruby.dir_cntrl105.responseToDir.m_buf_msgs     0.007050                       # Average number of messages in buffer ((Count/Tick))
system.ruby.dir_cntrl106.power_state.pwrStateResidencyTicks::UNDEFINED   2147483750                       # Cumulative time (in ticks) in various power states (Tick)
system.ruby.dir_cntrl106.requestToDir.m_msg_count        86038                       # Number of messages passed the buffer (Count)
system.ruby.dir_cntrl106.requestToDir.m_buf_msgs     0.010016                       # Average number of messages in buffer ((Count/Tick))
system.ruby.dir_cntrl106.responseToDir.m_msg_count        59820                       # Number of messages passed the buffer (Count)
system.ruby.dir_cntrl106.responseToDir.m_buf_msgs     0.006964                       # Average number of messages in buffer ((Count/Tick))
system.ruby.dir_cntrl107.power_state.pwrStateResidencyTicks::UNDEFINED   2147483750                       # Cumulative time (in ticks) in various power states (Tick)
system.ruby.dir_cntrl107.requestToDir.m_msg_count        85917                       # Number of messages passed the buffer (Count)
system.ruby.dir_cntrl107.requestToDir.m_buf_msgs     0.010002                       # Average number of messages in buffer ((Count/Tick))
system.ruby.dir_cntrl107.responseToDir.m_msg_count        59983                       # Number of messages passed the buffer (Count)
system.ruby.dir_cntrl107.responseToDir.m_buf_msgs     0.006983                       # Average number of messages in buffer ((Count/Tick))
system.ruby.dir_cntrl108.power_state.pwrStateResidencyTicks::UNDEFINED   2147483750                       # Cumulative time (in ticks) in various power states (Tick)
system.ruby.dir_cntrl108.requestToDir.m_msg_count        85432                       # Number of messages passed the buffer (Count)
system.ruby.dir_cntrl108.requestToDir.m_buf_msgs     0.009946                       # Average number of messages in buffer ((Count/Tick))
system.ruby.dir_cntrl108.responseToDir.m_msg_count        59689                       # Number of messages passed the buffer (Count)
system.ruby.dir_cntrl108.responseToDir.m_buf_msgs     0.006949                       # Average number of messages in buffer ((Count/Tick))
system.ruby.dir_cntrl109.power_state.pwrStateResidencyTicks::UNDEFINED   2147483750                       # Cumulative time (in ticks) in various power states (Tick)
system.ruby.dir_cntrl109.requestToDir.m_msg_count        85654                       # Number of messages passed the buffer (Count)
system.ruby.dir_cntrl109.requestToDir.m_buf_msgs     0.009971                       # Average number of messages in buffer ((Count/Tick))
system.ruby.dir_cntrl109.responseToDir.m_msg_count        59715                       # Number of messages passed the buffer (Count)
system.ruby.dir_cntrl109.responseToDir.m_buf_msgs     0.006952                       # Average number of messages in buffer ((Count/Tick))
system.ruby.dir_cntrl11.power_state.pwrStateResidencyTicks::UNDEFINED   2147483750                       # Cumulative time (in ticks) in various power states (Tick)
system.ruby.dir_cntrl11.requestToDir.m_msg_count        85766                       # Number of messages passed the buffer (Count)
system.ruby.dir_cntrl11.requestToDir.m_buf_msgs     0.009984                       # Average number of messages in buffer ((Count/Tick))
system.ruby.dir_cntrl11.responseToDir.m_msg_count        60206                       # Number of messages passed the buffer (Count)
[...]
system.ruby.network.sankey.vcvn13.vcvn5             0                       (Unspecified)
system.ruby.network.sankey.vcvn13.vcvn6             0                       (Unspecified)
system.ruby.network.sankey.vcvn13.vcvn7             0                       (Unspecified)
system.ruby.network.sankey.vcvn13.vcvn8             0                       (Unspecified)
system.ruby.network.sankey.vcvn13.vcvn9             0                       (Unspecified)
system.ruby.network.sankey.vcvn14.vcvn0             0                       (Unspecified)
system.ruby.network.sankey.vcvn14.vcvn1             0                       (Unspecified)
system.ruby.network.sankey.vcvn14.vcvn10            0                       (Unspecified)
system.ruby.network.sankey.vcvn14.vcvn11            0                       (Unspecified)
system.ruby.network.sankey.vcvn14.vcvn12      5563195                       (Unspecified)
system.ruby.network.sankey.vcvn14.vcvn13       792035                       (Unspecified)
system.ruby.network.sankey.vcvn14.vcvn14        62720                       (Unspecified)
system.ruby.network.sankey.vcvn14.vcvn15         3065                       (Unspecified)
system.ruby.network.sankey.vcvn14.vcvn16      1163642                       (Unspecified)
system.ruby.network.sankey.vcvn14.vcvn17       734067                       (Unspecified)
system.ruby.network.sankey.vcvn14.vcvn2             0                       (Unspecified)
system.ruby.network.sankey.vcvn14.vcvn3             0                       (Unspecified)
system.ruby.network.sankey.vcvn14.vcvn4             0                       (Unspecified)
system.ruby.network.sankey.vcvn14.vcvn5             0                       (Unspecified)
system.ruby.network.sankey.vcvn14.vcvn6             0                       (Unspecified)
system.ruby.network.sankey.vcvn14.vcvn7             0                       (Unspecified)
system.ruby.network.sankey.vcvn14.vcvn8             0                       (Unspecified)
system.ruby.network.sankey.vcvn14.vcvn9             0                       (Unspecified)
system.ruby.network.sankey.vcvn15.vcvn0             0                       (Unspecified)
system.ruby.network.sankey.vcvn15.vcvn1             0                       (Unspecified)
system.ruby.network.sankey.vcvn15.vcvn10            0                       (Unspecified)
system.ruby.network.sankey.vcvn15.vcvn11            0                       (Unspecified)
system.ruby.network.sankey.vcvn15.vcvn12      4637704                       (Unspecified)
system.ruby.network.sankey.vcvn15.vcvn13       665225                       (Unspecified)
system.ruby.network.sankey.vcvn15.vcvn14        52090                       (Unspecified)
system.ruby.network.sankey.vcvn15.vcvn15         2465                       (Unspecified)
system.ruby.network.sankey.vcvn15.vcvn16      1057194                       (Unspecified)
system.ruby.network.sankey.vcvn15.vcvn17       617345                       (Unspecified)
system.ruby.network.sankey.vcvn15.vcvn2             0                       (Unspecified)
system.ruby.network.sankey.vcvn15.vcvn3             0                       (Unspecified)
system.ruby.network.sankey.vcvn15.vcvn4             0                       (Unspecified)
system.ruby.network.sankey.vcvn15.vcvn5             0                       (Unspecified)
system.ruby.network.sankey.vcvn15.vcvn6             0                       (Unspecified)
system.ruby.network.sankey.vcvn15.vcvn7             0                       (Unspecified)
system.ruby.network.sankey.vcvn15.vcvn8             0                       (Unspecified)
system.ruby.network.sankey.vcvn15.vcvn9             0                       (Unspecified)
system.ruby.network.sankey.vcvn16.vcvn0             0                       (Unspecified)
system.ruby.network.sankey.vcvn16.vcvn1             0                       (Unspecified)
system.ruby.network.sankey.vcvn16.vcvn10            0                       (Unspecified)
system.ruby.network.sankey.vcvn16.vcvn11            0                       (Unspecified)
system.ruby.network.sankey.vcvn16.vcvn12            0                       (Unspecified)
system.ruby.network.sankey.vcvn16.vcvn13            0                       (Unspecified)
system.ruby.network.sankey.vcvn16.vcvn14            0                       (Unspecified)
system.ruby.network.sankey.vcvn16.vcvn15            0                       (Unspecified)
system.ruby.network.sankey.vcvn16.vcvn16      3294639                       (Unspecified)
system.ruby.network.sankey.vcvn16.vcvn17            0                       (Unspecified)
system.ruby.network.sankey.vcvn16.vcvn2             0                       (Unspecified)
system.ruby.network.sankey.vcvn16.vcvn3             0                       (Unspecified)
system.ruby.network.sankey.vcvn16.vcvn4             0                       (Unspecified)
system.ruby.network.sankey.vcvn16.vcvn5             0                       (Unspecified)
system.ruby.network.sankey.vcvn16.vcvn6             0                       (Unspecified)
system.ruby.network.sankey.vcvn16.vcvn7             0                       (Unspecified)
system.ruby.network.sankey.vcvn16.vcvn8             0                       (Unspecified)
system.ruby.network.sankey.vcvn16.vcvn9             0                       (Unspecified)
system.ruby.network.sankey.vcvn17.vcvn0             0                       (Unspecified)
system.ruby.network.sankey.vcvn17.vcvn1             0                       (Unspecified)
system.ruby.network.sankey.vcvn17.vcvn10            0                       (Unspecified)
system.ruby.network.sankey.vcvn17.vcvn11            0                       (Unspecified)
system.ruby.network.sankey.vcvn17.vcvn12            0                       (Unspecified)
system.ruby.network.sankey.vcvn17.vcvn13            0                       (Unspecified)
system.ruby.network.sankey.vcvn17.vcvn14            0                       (Unspecified)
system.ruby.network.sankey.vcvn17.vcvn15            0                       (Unspecified)
system.ruby.network.sankey.vcvn17.vcvn16            0                       (Unspecified)
system.ruby.network.sankey.vcvn17.vcvn17      3353160                       (Unspecified)
system.ruby.network.sankey.vcvn17.vcvn2             0                       (Unspecified)
system.ruby.network.sankey.vcvn17.vcvn3             0                       (Unspecified)
system.ruby.network.sankey.vcvn17.vcvn4             0                       (Unspecified)
system.ruby.network.sankey.vcvn17.vcvn5             0                       (Unspecified)
system.ruby.network.sankey.vcvn17.vcvn6             0                       (Unspecified)
system.ruby.network.sankey.vcvn17.vcvn7             0                       (Unspecified)
system.ruby.network.sankey.vcvn17.vcvn8             0                       (Unspecified)
system.ruby.network.sankey.vcvn17.vcvn9             0                       (Unspecified)
system.ruby.network.sankey.vcvn2.vcvn0        2479717                       (Unspecified)
system.ruby.network.sankey.vcvn2.vcvn1         124133                       (Unspecified)
system.ruby.network.sankey.vcvn2.vcvn10             0                       (Unspecified)
system.ruby.network.sankey.vcvn2.vcvn11             0                       (Unspecified)
system.ruby.network.sankey.vcvn2.vcvn12             0                       (Unspecified)
system.ruby.network.sankey.vcvn2.vcvn13             0                       (Unspecified)
system.ruby.network.sankey.vcvn2.vcvn14             0                       (Unspecified)
system.ruby.network.sankey.vcvn2.vcvn15             0                       (Unspecified)
system.ruby.network.sankey.vcvn2.vcvn16             0                       (Unspecified)
system.ruby.network.sankey.vcvn2.vcvn17             0                       (Unspecified)
system.ruby.network.sankey.vcvn2.vcvn2           2895                       (Unspecified)
system.ruby.network.sankey.vcvn2.vcvn3             45                       (Unspecified)
system.ruby.network.sankey.vcvn2.vcvn4           1305                       (Unspecified)
system.ruby.network.sankey.vcvn2.vcvn5           2664                       (Unspecified)
system.ruby.network.sankey.vcvn2.vcvn6              0                       (Unspecified)
system.ruby.network.sankey.vcvn2.vcvn7              0                       (Unspecified)
system.ruby.network.sankey.vcvn2.vcvn8              0                       (Unspecified)
system.ruby.network.sankey.vcvn2.vcvn9              0                       (Unspecified)
system.ruby.network.sankey.vcvn3.vcvn0        2480027                       (Unspecified)
system.ruby.network.sankey.vcvn3.vcvn1         123547                       (Unspecified)
system.ruby.network.sankey.vcvn3.vcvn10             0                       (Unspecified)
system.ruby.network.sankey.vcvn3.vcvn11             0                       (Unspecified)
system.ruby.network.sankey.vcvn3.vcvn12             0                       (Unspecified)
system.ruby.network.sankey.vcvn3.vcvn13             0                       (Unspecified)
system.ruby.network.sankey.vcvn3.vcvn14             0                       (Unspecified)
system.ruby.network.sankey.vcvn3.vcvn15             0                       (Unspecified)
system.ruby.network.sankey.vcvn3.vcvn16             0                       (Unspecified)
system.ruby.network.sankey.vcvn3.vcvn17             0                       (Unspecified)
system.ruby.network.sankey.vcvn3.vcvn2           2901                       (Unspecified)
system.ruby.network.sankey.vcvn3.vcvn3             44                       (Unspecified)
system.ruby.network.sankey.vcvn3.vcvn4           1355                       (Unspecified)
system.ruby.network.sankey.vcvn3.vcvn5           2832                       (Unspecified)
system.ruby.network.sankey.vcvn3.vcvn6              0                       (Unspecified)
system.ruby.network.sankey.vcvn3.vcvn7              0                       (Unspecified)
system.ruby.network.sankey.vcvn3.vcvn8              0                       (Unspecified)
system.ruby.network.sankey.vcvn3.vcvn9              0                       (Unspecified)
system.ruby.network.sankey.vcvn4.vcvn0              0                       (Unspecified)
system.ruby.network.sankey.vcvn4.vcvn1              0                       (Unspecified)
system.ruby.network.sankey.vcvn4.vcvn10             0                       (Unspecified)
system.ruby.network.sankey.vcvn4.vcvn11             0                       (Unspecified)
system.ruby.network.sankey.vcvn4.vcvn12             0                       (Unspecified)
system.ruby.network.sankey.vcvn4.vcvn13             0                       (Unspecified)
system.ruby.network.sankey.vcvn4.vcvn14             0                       (Unspecified)
system.ruby.network.sankey.vcvn4.vcvn15             0                       (Unspecified)
system.ruby.network.sankey.vcvn4.vcvn16             0                       (Unspecified)
system.ruby.network.sankey.vcvn4.vcvn17             0                       (Unspecified)
system.ruby.network.sankey.vcvn4.vcvn2              0                       (Unspecified)
system.ruby.network.sankey.vcvn4.vcvn3              0                       (Unspecified)
system.ruby.network.sankey.vcvn4.vcvn4         735394                       (Unspecified)
system.ruby.network.sankey.vcvn4.vcvn5              0                       (Unspecified)
system.ruby.network.sankey.vcvn4.vcvn6              0                       (Unspecified)
system.ruby.network.sankey.vcvn4.vcvn7              0                       (Unspecified)
system.ruby.network.sankey.vcvn4.vcvn8              0                       (Unspecified)
system.ruby.network.sankey.vcvn4.vcvn9              0                       (Unspecified)
system.ruby.network.sankey.vcvn5.vcvn0              0                       (Unspecified)
system.ruby.network.sankey.vcvn5.vcvn1              0                       (Unspecified)
system.ruby.network.sankey.vcvn5.vcvn10             0                       (Unspecified)
system.ruby.network.sankey.vcvn5.vcvn11             0                       (Unspecified)
system.ruby.network.sankey.vcvn5.vcvn12             0                       (Unspecified)
system.ruby.network.sankey.vcvn5.vcvn13             0                       (Unspecified)
system.ruby.network.sankey.vcvn5.vcvn14             0                       (Unspecified)
system.ruby.network.sankey.vcvn5.vcvn15             0                       (Unspecified)
system.ruby.network.sankey.vcvn5.vcvn16             0                       (Unspecified)
system.ruby.network.sankey.vcvn5.vcvn17             0                       (Unspecified)
system.ruby.network.sankey.vcvn5.vcvn2              0                       (Unspecified)
system.ruby.network.sankey.vcvn5.vcvn3              0                       (Unspecified)
system.ruby.network.sankey.vcvn5.vcvn4              0                       (Unspecified)
system.ruby.network.sankey.vcvn5.vcvn5        2549647                       (Unspecified)
system.ruby.network.sankey.vcvn5.vcvn6              0                       (Unspecified)
system.ruby.network.sankey.vcvn5.vcvn7              0                       (Unspecified)
system.ruby.network.sankey.vcvn5.vcvn8              0                       (Unspecified)
system.ruby.network.sankey.vcvn5.vcvn9              0                       (Unspecified)
system.ruby.network.sankey.vcvn6.vcvn0              0                       (Unspecified)
system.ruby.network.sankey.vcvn6.vcvn1              0                       (Unspecified)
system.ruby.network.sankey.vcvn6.vcvn10             0                       (Unspecified)
system.ruby.network.sankey.vcvn6.vcvn11             0                       (Unspecified)
system.ruby.network.sankey.vcvn6.vcvn12             0                       (Unspecified)
system.ruby.network.sankey.vcvn6.vcvn13             0                       (Unspecified)
system.ruby.network.sankey.vcvn6.vcvn14             0                       (Unspecified)
system.ruby.network.sankey.vcvn6.vcvn15             0                       (Unspecified)
system.ruby.network.sankey.vcvn6.vcvn16             0                       (Unspecified)
system.ruby.network.sankey.vcvn6.vcvn17             0                       (Unspecified)
system.ruby.network.sankey.vcvn6.vcvn2              0                       (Unspecified)
system.ruby.network.sankey.vcvn6.vcvn3              0                       (Unspecified)
system.ruby.network.sankey.vcvn6.vcvn4              0                       (Unspecified)
system.ruby.network.sankey.vcvn6.vcvn5              0                       (Unspecified)
system.ruby.network.sankey.vcvn6.vcvn6              0                       (Unspecified)
system.ruby.network.sankey.vcvn6.vcvn7              0                       (Unspecified)
system.ruby.network.sankey.vcvn6.vcvn8              0                       (Unspecified)
system.ruby.network.sankey.vcvn6.vcvn9              0                       (Unspecified)
system.ruby.network.sankey.vcvn7.vcvn0              0                       (Unspecified)
system.ruby.network.sankey.vcvn7.vcvn1              0                       (Unspecified)
system.ruby.network.sankey.vcvn7.vcvn10             0                       (Unspecified)
system.ruby.network.sankey.vcvn7.vcvn11             0                       (Unspecified)
system.ruby.network.sankey.vcvn7.vcvn12             0                       (Unspecified)
system.ruby.network.sankey.vcvn7.vcvn13             0                       (Unspecified)
system.ruby.network.sankey.vcvn7.vcvn14             0                       (Unspecified)
system.ruby.network.sankey.vcvn7.vcvn15             0                       (Unspecified)
system.ruby.network.sankey.vcvn7.vcvn16             0                       (Unspecified)
system.ruby.network.sankey.vcvn7.vcvn17             0                       (Unspecified)
system.ruby.network.sankey.vcvn7.vcvn2              0                       (Unspecified)
system.ruby.network.sankey.vcvn7.vcvn3              0                       (Unspecified)
system.ruby.network.sankey.vcvn7.vcvn4              0                       (Unspecified)
system.ruby.network.sankey.vcvn7.vcvn5              0                       (Unspecified)
system.ruby.network.sankey.vcvn7.vcvn6              0                       (Unspecified)
system.ruby.network.sankey.vcvn7.vcvn7              0                       (Unspecified)
system.ruby.network.sankey.vcvn7.vcvn8              0                       (Unspecified)
system.ruby.network.sankey.vcvn7.vcvn9              0                       (Unspecified)
system.ruby.network.sankey.vcvn8.vcvn0              0                       (Unspecified)
system.ruby.network.sankey.vcvn8.vcvn1              0                       (Unspecified)
system.ruby.network.sankey.vcvn8.vcvn10             0                       (Unspecified)
system.ruby.network.sankey.vcvn8.vcvn11             0                       (Unspecified)
system.ruby.network.sankey.vcvn8.vcvn12             0                       (Unspecified)
system.ruby.network.sankey.vcvn8.vcvn13             0                       (Unspecified)
system.ruby.network.sankey.vcvn8.vcvn14             0                       (Unspecified)
system.ruby.network.sankey.vcvn8.vcvn15             0                       (Unspecified)
system.ruby.network.sankey.vcvn8.vcvn16             0                       (Unspecified)
system.ruby.network.sankey.vcvn8.vcvn17             0                       (Unspecified)
system.ruby.network.sankey.vcvn8.vcvn2              0                       (Unspecified)
system.ruby.network.sankey.vcvn8.vcvn3              0                       (Unspecified)
system.ruby.network.sankey.vcvn8.vcvn4              0                       (Unspecified)
system.ruby.network.sankey.vcvn8.vcvn5              0                       (Unspecified)
system.ruby.network.sankey.vcvn8.vcvn6              0                       (Unspecified)
system.ruby.network.sankey.vcvn8.vcvn7              0                       (Unspecified)
system.ruby.network.sankey.vcvn8.vcvn8              0                       (Unspecified)
system.ruby.network.sankey.vcvn8.vcvn9              0                       (Unspecified)
system.ruby.network.sankey.vcvn9.vcvn0              0                       (Unspecified)
system.ruby.network.sankey.vcvn9.vcvn1              0                       (Unspecified)
system.ruby.network.sankey.vcvn9.vcvn10             0                       (Unspecified)
system.ruby.network.sankey.vcvn9.vcvn11             0                       (Unspecified)
system.ruby.network.sankey.vcvn9.vcvn12             0                       (Unspecified)
system.ruby.network.sankey.vcvn9.vcvn13             0                       (Unspecified)
system.ruby.network.sankey.vcvn9.vcvn14             0                       (Unspecified)
system.ruby.network.sankey.vcvn9.vcvn15             0                       (Unspecified)
system.ruby.network.sankey.vcvn9.vcvn16             0                       (Unspecified)
system.ruby.network.sankey.vcvn9.vcvn17             0                       (Unspecified)
system.ruby.network.sankey.vcvn9.vcvn2              0                       (Unspecified)
system.ruby.network.sankey.vcvn9.vcvn3              0                       (Unspecified)
system.ruby.network.sankey.vcvn9.vcvn4              0                       (Unspecified)
system.ruby.network.sankey.vcvn9.vcvn5              0                       (Unspecified)
system.ruby.network.sankey.vcvn9.vcvn6              0                       (Unspecified)
system.ruby.network.sankey.vcvn9.vcvn7              0                       (Unspecified)
system.ruby.network.sankey.vcvn9.vcvn8              0                       (Unspecified)
system.ruby.network.sankey.vcvn9.vcvn9              0                       (Unspecified)

---------- End Simulation Statistics   ----------
