gem5 Simulator System.  https://www.gem5.org
gem5 is copyrighted software; use the --copyright option for details.

gem5 version 22.1.0.0
gem5 compiled Apr 26 2024 15:22:46
gem5 started Apr 29 2024 09:39:35
gem5 executing on mnemosyne01.ecn.purdue.edu, pid 11661
command line: ./build/Garnet_standalone/gem5.fast -d ./synth_outputs/simple/2b/mixed/uniform/2evns_12vcs_64cpus_4xdirs_4.0GHz/coh/kite_small_64r/0_16/ configs/netsmith/netsmith_synth.py --topology EscapeVirtualNetworks --noi_routers 64 --sim-cycles 2147483647 --injectionrate 0.16 --noc_clk 4.0GHz --sys-clock 4.0GHz --ruby-clock 4.0GHz --noi_clk 3.6GHz --router_map_file ./topologies_and_routing/topo_maps/64r/prev/kite_small_64r.map --flat_vn_map_file ./topologies_and_routing/vn_maps/kite_small_64r_nndbt_none_2vns.vn --flat_nr_map_file ./topologies_and_routing/nr_lists/kite_small_64r_nndbt.nrl --ruby --mem_or_coh coh --mem-size 16384000 --num-dirs 256 --num-cpus 64 --network garnet --mem-type SimpleMemory --routing-algorithm 2 --use_escape_vns --synth_traffic --vcs-per-vnet 12 --evn_deadlock_partition 10 --evn_n_deadlock_free 1 --evn_min_n_deadlock_free 2

info: Standard input is not a terminal, disabling listeners.
cpus(64)=[<m5.objects.GarnetSyntheticTraffic.GarnetSyntheticTraffic object at 0x7f1c88dc1fd0>, <m5.objects.GarnetSyntheticTraffic.GarnetSyntheticTraffic object at 0x7f1c88dc1b00>, <m5.objects.GarnetSyntheticTraffic.GarnetSyntheticTraffic object at 0x7f1c88dc15f8>, <m5.objects.GarnetSyntheticTraffic.GarnetSyntheticTraffic object at 0x7f1c88dc1208>, <m5.objects.GarnetSyntheticTraffic.GarnetSyntheticTraffic object at 0x7f1c88dbbcf8>, <m5.objects.GarnetSyntheticTraffic.GarnetSyntheticTraffic object at 0x7f1c88dbb898>, <m5.objects.GarnetSyntheticTraffic.GarnetSyntheticTraffic object at 0x7f1c88dbb358>, <m5.objects.GarnetSyntheticTraffic.GarnetSyntheticTraffic object at 0x7f1c88dc4ef0>, <m5.objects.GarnetSyntheticTraffic.GarnetSyntheticTraffic object at 0x7f1c88dc4b00>, <m5.objects.GarnetSyntheticTraffic.GarnetSyntheticTraffic object at 0x7f1c88dc9d30>, <m5.objects.GarnetSyntheticTraffic.GarnetSyntheticTraffic object at 0x7f1c88dc95f8>, <m5.objects.GarnetSyntheticTraffic.GarnetSyntheticTraffic object at 0x7f1c88dc9240>, <m5.objects.GarnetSyntheticTraffic.GarnetSyntheticTraffic object at 0x7f1c8894e160>, <m5.objects.GarnetSyntheticTraffic.GarnetSyntheticTraffic object at 0x7f1c8894e438>, <m5.objects.GarnetSyntheticTraffic.GarnetSyntheticTraffic object at 0x7f1c8894e710>, <m5.objects.GarnetSyntheticTraffic.GarnetSyntheticTraffic object at 0x7f1c8894e9e8>, <m5.objects.GarnetSyntheticTraffic.GarnetSyntheticTraffic object at 0x7f1c8894ecc0>, <m5.objects.GarnetSyntheticTraffic.GarnetSyntheticTraffic object at 0x7f1c8894ef98>, <m5.objects.GarnetSyntheticTraffic.GarnetSyntheticTraffic object at 0x7f1c889552b0>, <m5.objects.GarnetSyntheticTraffic.GarnetSyntheticTraffic object at 0x7f1c88955518>, <m5.objects.GarnetSyntheticTraffic.GarnetSyntheticTraffic object at 0x7f1c889557f0>, <m5.objects.GarnetSyntheticTraffic.GarnetSyntheticTraffic object at 0x7f1c88955ac8>, <m5.objects.GarnetSyntheticTraffic.GarnetSyntheticTraffic object at 0x7f1c88955da0>, <m5.objects.GarnetSyntheticTraffic.GarnetSyntheticTraffic object at 0x7f1c8895d0b8>, <m5.objects.GarnetSyntheticTraffic.GarnetSyntheticTraffic object at 0x7f1c8895d358>, <m5.objects.GarnetSyntheticTraffic.GarnetSyntheticTraffic object at 0x7f1c8895d630>, <m5.objects.GarnetSyntheticTraffic.GarnetSyntheticTraffic object at 0x7f1c8895d908>, <m5.objects.GarnetSyntheticTraffic.GarnetSyntheticTraffic object at 0x7f1c8895dbe0>, <m5.objects.GarnetSyntheticTraffic.GarnetSyntheticTraffic object at 0x7f1c8895deb8>, <m5.objects.GarnetSyntheticTraffic.GarnetSyntheticTraffic object at 0x7f1c889641d0>, <m5.objects.GarnetSyntheticTraffic.GarnetSyntheticTraffic object at 0x7f1c889644a8>, <m5.objects.GarnetSyntheticTraffic.GarnetSyntheticTraffic object at 0x7f1c88964780>, <m5.objects.GarnetSyntheticTraffic.GarnetSyntheticTraffic object at 0x7f1c88964a58>, <m5.objects.GarnetSyntheticTraffic.GarnetSyntheticTraffic object at 0x7f1c88964d30>, <m5.objects.GarnetSyntheticTraffic.GarnetSyntheticTraffic object at 0x7f1c8896c048>, <m5.objects.GarnetSyntheticTraffic.GarnetSyntheticTraffic object at 0x7f1c8896c320>, <m5.objects.GarnetSyntheticTraffic.GarnetSyntheticTraffic object at 0x7f1c8896c5f8>, <m5.objects.GarnetSyntheticTraffic.GarnetSyntheticTraffic object at 0x7f1c8896c8d0>, <m5.objects.GarnetSyntheticTraffic.GarnetSyntheticTraffic object at 0x7f1c8896cba8>, <m5.objects.GarnetSyntheticTraffic.GarnetSyntheticTraffic object at 0x7f1c8896ce80>, <m5.objects.GarnetSyntheticTraffic.GarnetSyntheticTraffic object at 0x7f1c88974198>, <m5.objects.GarnetSyntheticTraffic.GarnetSyntheticTraffic object at 0x7f1c88974470>, <m5.objects.GarnetSyntheticTraffic.GarnetSyntheticTraffic object at 0x7f1c88974748>, <m5.objects.GarnetSyntheticTraffic.GarnetSyntheticTraffic object at 0x7f1c88974a20>, <m5.objects.GarnetSyntheticTraffic.GarnetSyntheticTraffic object at 0x7f1c88974cf8>, <m5.objects.GarnetSyntheticTraffic.GarnetSyntheticTraffic object at 0x7f1c88974fd0>, <m5.objects.GarnetSyntheticTraffic.GarnetSyntheticTraffic object at 0x7f1c8897d2e8>, <m5.objects.GarnetSyntheticTraffic.GarnetSyntheticTraffic object at 0x7f1c8897d5c0>, <m5.objects.GarnetSyntheticTraffic.GarnetSyntheticTraffic object at 0x7f1c8897d898>, <m5.objects.GarnetSyntheticTraffic.GarnetSyntheticTraffic object at 0x7f1c8897db70>, <m5.objects.GarnetSyntheticTraffic.GarnetSyntheticTraffic object at 0x7f1c8897de48>, <m5.objects.GarnetSyntheticTraffic.GarnetSyntheticTraffic object at 0x7f1c88984160>, <m5.objects.GarnetSyntheticTraffic.GarnetSyntheticTraffic object at 0x7f1c88984438>, <m5.objects.GarnetSyntheticTraffic.GarnetSyntheticTraffic object at 0x7f1c88984710>, <m5.objects.GarnetSyntheticTraffic.GarnetSyntheticTraffic object at 0x7f1c889849e8>, <m5.objects.GarnetSyntheticTraffic.GarnetSyntheticTraffic object at 0x7f1c88984cc0>, <m5.objects.GarnetSyntheticTraffic.GarnetSyntheticTraffic object at 0x7f1c88984f98>, <m5.objects.GarnetSyntheticTraffic.GarnetSyntheticTraffic object at 0x7f1c8898c2b0>, <m5.objects.GarnetSyntheticTraffic.GarnetSyntheticTraffic object at 0x7f1c8898c588>, <m5.objects.GarnetSyntheticTraffic.GarnetSyntheticTraffic object at 0x7f1c8898c860>, <m5.objects.GarnetSyntheticTraffic.GarnetSyntheticTraffic object at 0x7f1c8898cb38>, <m5.objects.GarnetSyntheticTraffic.GarnetSyntheticTraffic object at 0x7f1c8898ce10>, <m5.objects.GarnetSyntheticTraffic.GarnetSyntheticTraffic object at 0x7f1c88915128>, <m5.objects.GarnetSyntheticTraffic.GarnetSyntheticTraffic object at 0x7f1c88915400>])
ingesting ./topologies_and_routing/nr_lists/kite_small_64r_nndbt.nrl
ingesting ./topologies_and_routing/vn_maps/kite_small_64r_nndbt_none_2vns.vn
Adding external link: l1 cache node 0 <-> noi router 0 
Adding external link: l1 cache node 1 <-> noi router 1 
Adding external link: l1 cache node 2 <-> noi router 2 
Adding external link: l1 cache node 3 <-> noi router 3 
Adding external link: l1 cache node 4 <-> noi router 4 
Adding external link: l1 cache node 5 <-> noi router 5 
Adding external link: l1 cache node 6 <-> noi router 6 
Adding external link: l1 cache node 7 <-> noi router 7 
Adding external link: l1 cache node 8 <-> noi router 8 
Adding external link: l1 cache node 9 <-> noi router 9 
Adding external link: l1 cache node 10 <-> noi router 10 
Adding external link: l1 cache node 11 <-> noi router 11 
Adding external link: l1 cache node 12 <-> noi router 12 
Adding external link: l1 cache node 13 <-> noi router 13 
Adding external link: l1 cache node 14 <-> noi router 14 
Adding external link: l1 cache node 15 <-> noi router 15 
Adding external link: l1 cache node 16 <-> noi router 16 
Adding external link: l1 cache node 17 <-> noi router 17 
Adding external link: l1 cache node 18 <-> noi router 18 
Adding external link: l1 cache node 19 <-> noi router 19 
Adding external link: l1 cache node 20 <-> noi router 20 
Adding external link: l1 cache node 21 <-> noi router 21 
Adding external link: l1 cache node 22 <-> noi router 22 
Adding external link: l1 cache node 23 <-> noi router 23 
Adding external link: l1 cache node 24 <-> noi router 24 
Adding external link: l1 cache node 25 <-> noi router 25 
Adding external link: l1 cache node 26 <-> noi router 26 
Adding external link: l1 cache node 27 <-> noi router 27 
Adding external link: l1 cache node 28 <-> noi router 28 
Adding external link: l1 cache node 29 <-> noi router 29 
Adding external link: l1 cache node 30 <-> noi router 30 
Adding external link: l1 cache node 31 <-> noi router 31 
Adding external link: l1 cache node 32 <-> noi router 32 
Adding external link: l1 cache node 33 <-> noi router 33 
Adding external link: l1 cache node 34 <-> noi router 34 
Adding external link: l1 cache node 35 <-> noi router 35 
Adding external link: l1 cache node 36 <-> noi router 36 
Adding external link: l1 cache node 37 <-> noi router 37 
Adding external link: l1 cache node 38 <-> noi router 38 
Adding external link: l1 cache node 39 <-> noi router 39 
Adding external link: l1 cache node 40 <-> noi router 40 
Adding external link: l1 cache node 41 <-> noi router 41 
Adding external link: l1 cache node 42 <-> noi router 42 
Adding external link: l1 cache node 43 <-> noi router 43 
Adding external link: l1 cache node 44 <-> noi router 44 
Adding external link: l1 cache node 45 <-> noi router 45 
Adding external link: l1 cache node 46 <-> noi router 46 
Adding external link: l1 cache node 47 <-> noi router 47 
Adding external link: l1 cache node 48 <-> noi router 48 
Adding external link: l1 cache node 49 <-> noi router 49 
Adding external link: l1 cache node 50 <-> noi router 50 
Adding external link: l1 cache node 51 <-> noi router 51 
Adding external link: l1 cache node 52 <-> noi router 52 
Adding external link: l1 cache node 53 <-> noi router 53 
Adding external link: l1 cache node 54 <-> noi router 54 
Adding external link: l1 cache node 55 <-> noi router 55 
Adding external link: l1 cache node 56 <-> noi router 56 
Adding external link: l1 cache node 57 <-> noi router 57 
Adding external link: l1 cache node 58 <-> noi router 58 
Adding external link: l1 cache node 59 <-> noi router 59 
Adding external link: l1 cache node 60 <-> noi router 60 
Adding external link: l1 cache node 61 <-> noi router 61 
Adding external link: l1 cache node 62 <-> noi router 62 
Adding external link: l1 cache node 63 <-> noi router 63 
Adding external link (id 64): dir node 0 <-> noi router 0
Adding external link (id 65): dir node 1 <-> noi router 1
Adding external link (id 66): dir node 2 <-> noi router 2
Adding external link (id 67): dir node 3 <-> noi router 3
Adding external link (id 68): dir node 4 <-> noi router 4
Adding external link (id 69): dir node 5 <-> noi router 5
Adding external link (id 70): dir node 6 <-> noi router 6
Adding external link (id 71): dir node 7 <-> noi router 7
Adding external link (id 72): dir node 8 <-> noi router 8
Adding external link (id 73): dir node 9 <-> noi router 9
Adding external link (id 74): dir node 10 <-> noi router 10
Adding external link (id 75): dir node 11 <-> noi router 11
Adding external link (id 76): dir node 12 <-> noi router 12
Adding external link (id 77): dir node 13 <-> noi router 13
Adding external link (id 78): dir node 14 <-> noi router 14
Adding external link (id 79): dir node 15 <-> noi router 15
Adding external link (id 80): dir node 16 <-> noi router 16
Adding external link (id 81): dir node 17 <-> noi router 17
Adding external link (id 82): dir node 18 <-> noi router 18
Adding external link (id 83): dir node 19 <-> noi router 19
Adding external link (id 84): dir node 20 <-> noi router 20
Adding external link (id 85): dir node 21 <-> noi router 21
Adding external link (id 86): dir node 22 <-> noi router 22
Adding external link (id 87): dir node 23 <-> noi router 23
Adding external link (id 88): dir node 24 <-> noi router 24
Adding external link (id 89): dir node 25 <-> noi router 25
Adding external link (id 90): dir node 26 <-> noi router 26
Adding external link (id 91): dir node 27 <-> noi router 27
Adding external link (id 92): dir node 28 <-> noi router 28
Adding external link (id 93): dir node 29 <-> noi router 29
Adding external link (id 94): dir node 30 <-> noi router 30
Adding external link (id 95): dir node 31 <-> noi router 31
Adding external link (id 96): dir node 32 <-> noi router 32
Adding external link (id 97): dir node 33 <-> noi router 33
Adding external link (id 98): dir node 34 <-> noi router 34
Adding external link (id 99): dir node 35 <-> noi router 35
Adding external link (id 100): dir node 36 <-> noi router 36
Adding external link (id 101): dir node 37 <-> noi router 37
Adding external link (id 102): dir node 38 <-> noi router 38
Adding external link (id 103): dir node 39 <-> noi router 39
Adding external link (id 104): dir node 40 <-> noi router 40
Adding external link (id 105): dir node 41 <-> noi router 41
Adding external link (id 106): dir node 42 <-> noi router 42
Adding external link (id 107): dir node 43 <-> noi router 43
Adding external link (id 108): dir node 44 <-> noi router 44
Adding external link (id 109): dir node 45 <-> noi router 45
Adding external link (id 110): dir node 46 <-> noi router 46
Adding external link (id 111): dir node 47 <-> noi router 47
Adding external link (id 112): dir node 48 <-> noi router 48
Adding external link (id 113): dir node 49 <-> noi router 49
Adding external link (id 114): dir node 50 <-> noi router 50
Adding external link (id 115): dir node 51 <-> noi router 51
Adding external link (id 116): dir node 52 <-> noi router 52
Adding external link (id 117): dir node 53 <-> noi router 53
Adding external link (id 118): dir node 54 <-> noi router 54
Adding external link (id 119): dir node 55 <-> noi router 55
Adding external link (id 120): dir node 56 <-> noi router 56
Adding external link (id 121): dir node 57 <-> noi router 57
Adding external link (id 122): dir node 58 <-> noi router 58
Adding external link (id 123): dir node 59 <-> noi router 59
Adding external link (id 124): dir node 60 <-> noi router 60
Adding external link (id 125): dir node 61 <-> noi router 61
Adding external link (id 126): dir node 62 <-> noi router 62
Adding external link (id 127): dir node 63 <-> noi router 63
Adding external link (id 128): dir node 64 <-> noi router 0
Adding external link (id 129): dir node 65 <-> noi router 1
Adding external link (id 130): dir node 66 <-> noi router 2
Adding external link (id 131): dir node 67 <-> noi router 3
Adding external link (id 132): dir node 68 <-> noi router 4
Adding external link (id 133): dir node 69 <-> noi router 5
Adding external link (id 134): dir node 70 <-> noi router 6
Adding external link (id 135): dir node 71 <-> noi router 7
Adding external link (id 136): dir node 72 <-> noi router 8
Adding external link (id 137): dir node 73 <-> noi router 9
Adding external link (id 138): dir node 74 <-> noi router 10
Adding external link (id 139): dir node 75 <-> noi router 11
Adding external link (id 140): dir node 76 <-> noi router 12
Adding external link (id 141): dir node 77 <-> noi router 13
Adding external link (id 142): dir node 78 <-> noi router 14
Adding external link (id 143): dir node 79 <-> noi router 15
Adding external link (id 144): dir node 80 <-> noi router 16
Adding external link (id 145): dir node 81 <-> noi router 17
Adding external link (id 146): dir node 82 <-> noi router 18
Adding external link (id 147): dir node 83 <-> noi router 19
Adding external link (id 148): dir node 84 <-> noi router 20
Adding external link (id 149): dir node 85 <-> noi router 21
Adding external link (id 150): dir node 86 <-> noi router 22
Adding external link (id 151): dir node 87 <-> noi router 23
Adding external link (id 152): dir node 88 <-> noi router 24
Adding external link (id 153): dir node 89 <-> noi router 25
Adding external link (id 154): dir node 90 <-> noi router 26
Adding external link (id 155): dir node 91 <-> noi router 27
Adding external link (id 156): dir node 92 <-> noi router 28
Adding external link (id 157): dir node 93 <-> noi router 29
Adding external link (id 158): dir node 94 <-> noi router 30
Adding external link (id 159): dir node 95 <-> noi router 31
Adding external link (id 160): dir node 96 <-> noi router 32
Adding external link (id 161): dir node 97 <-> noi router 33
Adding external link (id 162): dir node 98 <-> noi router 34
Adding external link (id 163): dir node 99 <-> noi router 35
Adding external link (id 164): dir node 100 <-> noi router 36
Adding external link (id 165): dir node 101 <-> noi router 37
Adding external link (id 166): dir node 102 <-> noi router 38
Adding external link (id 167): dir node 103 <-> noi router 39
Adding external link (id 168): dir node 104 <-> noi router 40
Adding external link (id 169): dir node 105 <-> noi router 41
Adding external link (id 170): dir node 106 <-> noi router 42
Adding external link (id 171): dir node 107 <-> noi router 43
Adding external link (id 172): dir node 108 <-> noi router 44
Adding external link (id 173): dir node 109 <-> noi router 45
Adding external link (id 174): dir node 110 <-> noi router 46
Adding external link (id 175): dir node 111 <-> noi router 47
Adding external link (id 176): dir node 112 <-> noi router 48
Adding external link (id 177): dir node 113 <-> noi router 49
Adding external link (id 178): dir node 114 <-> noi router 50
Adding external link (id 179): dir node 115 <-> noi router 51
Adding external link (id 180): dir node 116 <-> noi router 52
Adding external link (id 181): dir node 117 <-> noi router 53
Adding external link (id 182): dir node 118 <-> noi router 54
Adding external link (id 183): dir node 119 <-> noi router 55
Adding external link (id 184): dir node 120 <-> noi router 56
Adding external link (id 185): dir node 121 <-> noi router 57
Adding external link (id 186): dir node 122 <-> noi router 58
Adding external link (id 187): dir node 123 <-> noi router 59
Adding external link (id 188): dir node 124 <-> noi router 60
Adding external link (id 189): dir node 125 <-> noi router 61
Adding external link (id 190): dir node 126 <-> noi router 62
Adding external link (id 191): dir node 127 <-> noi router 63
Adding external link (id 192): dir node 128 <-> noi router 0
Adding external link (id 193): dir node 129 <-> noi router 1
Adding external link (id 194): dir node 130 <-> noi router 2
Adding external link (id 195): dir node 131 <-> noi router 3
Adding external link (id 196): dir node 132 <-> noi router 4
Adding external link (id 197): dir node 133 <-> noi router 5
Adding external link (id 198): dir node 134 <-> noi router 6
Adding external link (id 199): dir node 135 <-> noi router 7
Adding external link (id 200): dir node 136 <-> noi router 8
Adding external link (id 201): dir node 137 <-> noi router 9
Adding external link (id 202): dir node 138 <-> noi router 10
Adding external link (id 203): dir node 139 <-> noi router 11
Adding external link (id 204): dir node 140 <-> noi router 12
Adding external link (id 205): dir node 141 <-> noi router 13
Adding external link (id 206): dir node 142 <-> noi router 14
Adding external link (id 207): dir node 143 <-> noi router 15
Adding external link (id 208): dir node 144 <-> noi router 16
Adding external link (id 209): dir node 145 <-> noi router 17
Adding external link (id 210): dir node 146 <-> noi router 18
Adding external link (id 211): dir node 147 <-> noi router 19
Adding external link (id 212): dir node 148 <-> noi router 20
Adding external link (id 213): dir node 149 <-> noi router 21
Adding external link (id 214): dir node 150 <-> noi router 22
Adding external link (id 215): dir node 151 <-> noi router 23
Adding external link (id 216): dir node 152 <-> noi router 24
Adding external link (id 217): dir node 153 <-> noi router 25
Adding external link (id 218): dir node 154 <-> noi router 26
Adding external link (id 219): dir node 155 <-> noi router 27
Adding external link (id 220): dir node 156 <-> noi router 28
Adding external link (id 221): dir node 157 <-> noi router 29
Adding external link (id 222): dir node 158 <-> noi router 30
Adding external link (id 223): dir node 159 <-> noi router 31
Adding external link (id 224): dir node 160 <-> noi router 32
Adding external link (id 225): dir node 161 <-> noi router 33
Adding external link (id 226): dir node 162 <-> noi router 34
Adding external link (id 227): dir node 163 <-> noi router 35
Adding external link (id 228): dir node 164 <-> noi router 36
Adding external link (id 229): dir node 165 <-> noi router 37
Adding external link (id 230): dir node 166 <-> noi router 38
Adding external link (id 231): dir node 167 <-> noi router 39
Adding external link (id 232): dir node 168 <-> noi router 40
Adding external link (id 233): dir node 169 <-> noi router 41
Adding external link (id 234): dir node 170 <-> noi router 42
Adding external link (id 235): dir node 171 <-> noi router 43
Adding external link (id 236): dir node 172 <-> noi router 44
Adding external link (id 237): dir node 173 <-> noi router 45
Adding external link (id 238): dir node 174 <-> noi router 46
Adding external link (id 239): dir node 175 <-> noi router 47
Adding external link (id 240): dir node 176 <-> noi router 48
Adding external link (id 241): dir node 177 <-> noi router 49
Adding external link (id 242): dir node 178 <-> noi router 50
Adding external link (id 243): dir node 179 <-> noi router 51
Adding external link (id 244): dir node 180 <-> noi router 52
Adding external link (id 245): dir node 181 <-> noi router 53
Adding external link (id 246): dir node 182 <-> noi router 54
Adding external link (id 247): dir node 183 <-> noi router 55
Adding external link (id 248): dir node 184 <-> noi router 56
Adding external link (id 249): dir node 185 <-> noi router 57
Adding external link (id 250): dir node 186 <-> noi router 58
Adding external link (id 251): dir node 187 <-> noi router 59
Adding external link (id 252): dir node 188 <-> noi router 60
Adding external link (id 253): dir node 189 <-> noi router 61
Adding external link (id 254): dir node 190 <-> noi router 62
Adding external link (id 255): dir node 191 <-> noi router 63
Adding external link (id 256): dir node 192 <-> noi router 0
Adding external link (id 257): dir node 193 <-> noi router 1
Adding external link (id 258): dir node 194 <-> noi router 2
Adding external link (id 259): dir node 195 <-> noi router 3
Adding external link (id 260): dir node 196 <-> noi router 4
Adding external link (id 261): dir node 197 <-> noi router 5
Adding external link (id 262): dir node 198 <-> noi router 6
Adding external link (id 263): dir node 199 <-> noi router 7
Adding external link (id 264): dir node 200 <-> noi router 8
Adding external link (id 265): dir node 201 <-> noi router 9
Adding external link (id 266): dir node 202 <-> noi router 10
Adding external link (id 267): dir node 203 <-> noi router 11
Adding external link (id 268): dir node 204 <-> noi router 12
Adding external link (id 269): dir node 205 <-> noi router 13
Adding external link (id 270): dir node 206 <-> noi router 14
Adding external link (id 271): dir node 207 <-> noi router 15
Adding external link (id 272): dir node 208 <-> noi router 16
Adding external link (id 273): dir node 209 <-> noi router 17
Adding external link (id 274): dir node 210 <-> noi router 18
Adding external link (id 275): dir node 211 <-> noi router 19
Adding external link (id 276): dir node 212 <-> noi router 20
Adding external link (id 277): dir node 213 <-> noi router 21
Adding external link (id 278): dir node 214 <-> noi router 22
Adding external link (id 279): dir node 215 <-> noi router 23
Adding external link (id 280): dir node 216 <-> noi router 24
Adding external link (id 281): dir node 217 <-> noi router 25
Adding external link (id 282): dir node 218 <-> noi router 26
Adding external link (id 283): dir node 219 <-> noi router 27
Adding external link (id 284): dir node 220 <-> noi router 28
Adding external link (id 285): dir node 221 <-> noi router 29
Adding external link (id 286): dir node 222 <-> noi router 30
Adding external link (id 287): dir node 223 <-> noi router 31
Adding external link (id 288): dir node 224 <-> noi router 32
Adding external link (id 289): dir node 225 <-> noi router 33
Adding external link (id 290): dir node 226 <-> noi router 34
Adding external link (id 291): dir node 227 <-> noi router 35
Adding external link (id 292): dir node 228 <-> noi router 36
Adding external link (id 293): dir node 229 <-> noi router 37
Adding external link (id 294): dir node 230 <-> noi router 38
Adding external link (id 295): dir node 231 <-> noi router 39Global frequency set at 1000000000000 ticks per second

Adding external link (id 296): dir node 232 <-> noi router 40
Adding external link (id 297): dir node 233 <-> noi router 41
Adding external link (id 298): dir node 234 <-> noi router 42
Adding external link (id 299): dir node 235 <-> noi router 43
Adding external link (id 300): dir node 236 <-> noi router 44
Adding external link (id 301): dir node 237 <-> noi router 45
Adding external link (id 302): dir node 238 <-> noi router 46
Adding external link (id 303): dir node 239 <-> noi router 47
Adding external link (id 304): dir node 240 <-> noi router 48
Adding external link (id 305): dir node 241 <-> noi router 49
Adding external link (id 306): dir node 242 <-> noi router 50
Adding external link (id 307): dir node 243 <-> noi router 51
Adding external link (id 308): dir node 244 <-> noi router 52
Adding external link (id 309): dir node 245 <-> noi router 53
Adding external link (id 310): dir node 246 <-> noi router 54
Adding external link (id 311): dir node 247 <-> noi router 55
Adding external link (id 312): dir node 248 <-> noi router 56
Adding external link (id 313): dir node 249 <-> noi router 57
Adding external link (id 314): dir node 250 <-> noi router 58
Adding external link (id 315): dir node 251 <-> noi router 59
Adding external link (id 316): dir node 252 <-> noi router 60
Adding external link (id 317): dir node 253 <-> noi router 61
Adding external link (id 318): dir node 254 <-> noi router 62
Adding external link (id 319): dir node 255 <-> noi router 63
ingesting ./topologies_and_routing/topo_maps/64r/prev/kite_small_64r.map
per_cpu=256000
autotop_synth:: About to run simulation
Possible network deadlock in vnet: 2, evn_class 1, at time: 19714500 in NI 0 and router 0 
post_dlock=1 and dlock thresh=100000 in NI 0
Possible network deadlock in vnet: 2, evn_class 1, at time: 19749000 in NI 8 and router 8 
post_dlock=1 and dlock thresh=100000 in NI 8
Possible network deadlock in vnet: 2, evn_class 1, at time: 24715750 in NI 42 and router 42 
post_dlock=1 and dlock thresh=100000 in NI 42
Possible network deadlock in vnet: 2, evn_class 1, at time: 24890000 in NI 33 and router 33 
post_dlock=1 and dlock thresh=100000 in NI 33
Possible network deadlock in vnet: 2, evn_class 1, at time: 56864250 in NI 24 and router 24 
post_dlock=1 and dlock thresh=100000 in NI 24
Possible network deadlock in vnet: 2, evn_class 1, at time: 57024750 in NI 16 and router 16 
post_dlock=1 and dlock thresh=100000 in NI 16
Possible network deadlock in vnet: 2, evn_class 1, at time: 67778250 in NI 40 and router 40 
post_dlock=1 and dlock thresh=100000 in NI 40
Possible network deadlock in vnet: 2, evn_class 1, at time: 69364250 in NI 24 and router 24 
post_dlock=1 and dlock thresh=200000 in NI 24
Possible network deadlock in vnet: 2, evn_class 1, at time: 69524750 in NI 16 and router 16 
post_dlock=1 and dlock thresh=200000 in NI 16
Possible network deadlock in vnet: 2, evn_class 1, at time: 69574500 in NI 0 and router 0 
post_dlock=1 and dlock thresh=200000 in NI 0
Possible network deadlock in vnet: 2, evn_class 1, at time: 69576500 in NI 8 and router 8 
post_dlock=1 and dlock thresh=200000 in NI 8
Possible network deadlock in vnet: 2, evn_class 1, at time: 78137000 in NI 56 and router 56 
post_dlock=1 and dlock thresh=100000 in NI 56
Possible network deadlock in vnet: 2, evn_class 1, at time: 79065750 in NI 33 and router 33 
post_dlock=1 and dlock thresh=200000 in NI 33
Possible network deadlock in vnet: 2, evn_class 1, at time: 80175000 in NI 49 and router 49 
post_dlock=1 and dlock thresh=100000 in NI 49
Possible network deadlock in vnet: 2, evn_class 1, at time: 80278250 in NI 40 and router 40 
post_dlock=1 and dlock thresh=200000 in NI 40
Possible network deadlock in vnet: 2, evn_class 1, at time: 94364250 in NI 24 and router 24 
post_dlock=1 and dlock thresh=400000 in NI 24
Possible network deadlock in vnet: 2, evn_class 1, at time: 94524750 in NI 16 and router 16 
post_dlock=1 and dlock thresh=400000 in NI 16
Possible network deadlock in vnet: 2, evn_class 1, at time: 94574500 in NI 0 and router 0 
post_dlock=1 and dlock thresh=400000 in NI 0
Possible network deadlock in vnet: 2, evn_class 1, at time: 94576500 in NI 8 and router 8 
post_dlock=1 and dlock thresh=400000 in NI 8
Possible network deadlock in vnet: 2, evn_class 1, at time: 104065750 in NI 33 and router 33 
post_dlock=1 and dlock thresh=400000 in NI 33
Possible network deadlock in vnet: 2, evn_class 1, at time: 116393000 in NI 42 and router 42 
post_dlock=1 and dlock thresh=200000 in NI 42
Possible network deadlock in vnet: 2, evn_class 1, at time: 603513250 in NI 40 and router 40 
post_dlock=1 and dlock thresh=400000 in NI 40
Possible network deadlock in vnet: 2, evn_class 1, at time: 614563250 in NI 0 and router 0 
post_dlock=1 and dlock thresh=800000 in NI 0
Possible network deadlock in vnet: 2, evn_class 1, at time: 614607500 in NI 16 and router 16 
post_dlock=1 and dlock thresh=800000 in NI 16
Possible network deadlock in vnet: 2, evn_class 1, at time: 625373500 in NI 8 and router 8 
post_dlock=1 and dlock thresh=800000 in NI 8
Possible network deadlock in vnet: 2, evn_class 1, at time: 718021750 in NI 47 and router 47 
post_dlock=1 and dlock thresh=100000 in NI 47
Possible network deadlock in vnet: 2, evn_class 1, at time: 718112750 in NI 55 and router 55 
post_dlock=1 and dlock thresh=100000 in NI 55
Possible network deadlock in vnet: 2, evn_class 0, at time: 718130750 in NI 62 and router 62 
post_dlock=1 and dlock thresh=100000 in NI 62
Possible network deadlock in vnet: 2, evn_class 1, at time: 718219500 in NI 48 and router 48 
post_dlock=1 and dlock thresh=100000 in NI 48
Possible network deadlock in vnet: 2, evn_class 1, at time: 718226250 in NI 32 and router 32 
post_dlock=1 and dlock thresh=100000 in NI 32
Possible network deadlock in vnet: 2, evn_class 1, at time: 718373000 in NI 34 and router 34 
post_dlock=1 and dlock thresh=100000 in NI 34
Possible network deadlock in vnet: 2, evn_class 0, at time: 718480500 in NI 20 and router 20 
post_dlock=1 and dlock thresh=100000 in NI 20
Possible network deadlock in vnet: 2, evn_class 1, at time: 718559750 in NI 38 and router 38 
post_dlock=1 and dlock thresh=100000 in NI 38
Possible network deadlock in vnet: 2, evn_class 1, at time: 718579750 in NI 41 and router 41 
post_dlock=1 and dlock thresh=100000 in NI 41
Possible network deadlock in vnet: 2, evn_class 0, at time: 718585500 in NI 46 and router 46 
post_dlock=1 and dlock thresh=100000 in NI 46
Possible network deadlock in vnet: 2, evn_class 0, at time: 718714250 in NI 37 and router 37 
post_dlock=1 and dlock thresh=100000 in NI 37
Possible network deadlock in vnet: 2, evn_class 0, at time: 718730750 in NI 63 and router 63 
post_dlock=1 and dlock thresh=100000 in NI 63
Possible network deadlock in vnet: 2, evn_class 1, at time: 718877500 in NI 50 and router 50 
post_dlock=1 and dlock thresh=100000 in NI 50
Possible network deadlock in vnet: 2, evn_class 1, at time: 718934750 in NI 57 and router 57 
post_dlock=1 and dlock thresh=100000 in NI 57
Possible network deadlock in vnet: 2, evn_class 1, at time: 719467750 in NI 58 and router 58 
post_dlock=1 and dlock thresh=100000 in NI 58
Possible network deadlock in vnet: 2, evn_class 1, at time: 720533000 in NI 25 and router 25 
post_dlock=1 and dlock thresh=100000 in NI 25
Possible network deadlock in vnet: 2, evn_class 1, at time: 720555500 in NI 61 and router 61 
post_dlock=1 and dlock thresh=100000 in NI 61
Possible network deadlock in vnet: 2, evn_class 1, at time: 720569750 in NI 43 and router 43 
post_dlock=1 and dlock thresh=100000 in NI 43
Possible network deadlock in vnet: 2, evn_class 1, at time: 720838500 in NI 59 and router 59 
post_dlock=1 and dlock thresh=100000 in NI 59
Possible network deadlock in vnet: 2, evn_class 1, at time: 721043750 in NI 52 and router 52 
post_dlock=1 and dlock thresh=100000 in NI 52
Possible network deadlock in vnet: 2, evn_class 1, at time: 730719500 in NI 48 and router 48 
post_dlock=1 and dlock thresh=200000 in NI 48
Possible network deadlock in vnet: 2, evn_class 1, at time: 730726250 in NI 32 and router 32 
post_dlock=1 and dlock thresh=200000 in NI 32
Possible network deadlock in vnet: 2, evn_class 1, at time: 730873000 in NI 34 and router 34 
post_dlock=1 and dlock thresh=200000 in NI 34
Possible network deadlock in vnet: 2, evn_class 1, at time: 731079750 in NI 41 and router 41 
post_dlock=1 and dlock thresh=200000 in NI 41
Possible network deadlock in vnet: 2, evn_class 1, at time: 733033000 in NI 25 and router 25 
post_dlock=1 and dlock thresh=200000 in NI 25
Possible network deadlock in vnet: 2, evn_class 0, at time: 735104500 in NI 26 and router 26 
post_dlock=1 and dlock thresh=100000 in NI 26
Possible network deadlock in vnet: 2, evn_class 0, at time: 735116750 in NI 35 and router 35 
post_dlock=1 and dlock thresh=100000 in NI 35
Possible network deadlock in vnet: 2, evn_class 0, at time: 735192750 in NI 1 and router 1 
post_dlock=1 and dlock thresh=100000 in NI 1
Possible network deadlock in vnet: 2, evn_class 0, at time: 735198750 in NI 2 and router 2 
post_dlock=1 and dlock thresh=100000 in NI 2
Possible network deadlock in vnet: 2, evn_class 0, at time: 735234250 in NI 11 and router 11 
post_dlock=1 and dlock thresh=100000 in NI 11
Possible network deadlock in vnet: 2, evn_class 0, at time: 735254250 in NI 29 and router 29 
post_dlock=1 and dlock thresh=100000 in NI 29
Possible network deadlock in vnet: 2, evn_class 1, at time: 735342500 in NI 53 and router 53 
post_dlock=1 and dlock thresh=100000 in NI 53
Possible network deadlock in vnet: 2, evn_class 0, at time: 735404500 in NI 17 and router 17 
post_dlock=1 and dlock thresh=100000 in NI 17
Possible network deadlock in vnet: 2, evn_class 0, at time: 735476250 in NI 28 and router 28 
post_dlock=1 and dlock thresh=100000 in NI 28
Possible network deadlock in vnet: 2, evn_class 0, at time: 735496750 in NI 19 and router 19 
post_dlock=1 and dlock thresh=100000 in NI 19
Possible network deadlock in vnet: 2, evn_class 1, at time: 735979500 in NI 44 and router 44 
post_dlock=1 and dlock thresh=100000 in NI 44
Possible network deadlock in vnet: 2, evn_class 0, at time: 735986750 in NI 10 and router 10 
post_dlock=1 and dlock thresh=100000 in NI 10
Possible network deadlock in vnet: 2, evn_class 0, at time: 747604500 in NI 26 and router 26 
post_dlock=1 and dlock thresh=200000 in NI 26
Possible network deadlock in vnet: 2, evn_class 0, at time: 747616750 in NI 35 and router 35 
post_dlock=1 and dlock thresh=200000 in NI 35
Possible network deadlock in vnet: 2, evn_class 0, at time: 747666250 in NI 63 and router 63 
post_dlock=1 and dlock thresh=200000 in NI 63
Possible network deadlock in vnet: 2, evn_class 0, at time: 747692750 in NI 1 and router 1 
post_dlock=1 and dlock thresh=200000 in NI 1
Possible network deadlock in vnet: 2, evn_class 0, at time: 747698750 in NI 2 and router 2 
post_dlock=1 and dlock thresh=200000 in NI 2
Possible network deadlock in vnet: 2, evn_class 1, at time: 747708250 in NI 47 and router 47 
post_dlock=1 and dlock thresh=200000 in NI 47
Possible network deadlock in vnet: 2, evn_class 0, at time: 747734250 in NI 11 and router 11 
post_dlock=1 and dlock thresh=200000 in NI 11
Possible network deadlock in vnet: 2, evn_class 0, at time: 747747750 in NI 20 and router 20 
post_dlock=1 and dlock thresh=200000 in NI 20
Possible network deadlock in vnet: 2, evn_class 0, at time: 747754250 in NI 29 and router 29 
post_dlock=1 and dlock thresh=200000 in NI 29
Possible network deadlock in vnet: 2, evn_class 1, at time: 747820000 in NI 62 and router 62 
post_dlock=1 and dlock thresh=200000 in NI 62
Possible network deadlock in vnet: 2, evn_class 1, at time: 747829750 in NI 55 and router 55 
post_dlock=1 and dlock thresh=200000 in NI 55
Possible network deadlock in vnet: 2, evn_class 1, at time: 747832000 in NI 50 and router 50 
post_dlock=1 and dlock thresh=200000 in NI 50
Possible network deadlock in vnet: 2, evn_class 1, at time: 747839250 in NI 57 and router 57 
post_dlock=1 and dlock thresh=200000 in NI 57
Possible network deadlock in vnet: 2, evn_class 1, at time: 747842500 in NI 53 and router 53 
post_dlock=1 and dlock thresh=200000 in NI 53
Possible network deadlock in vnet: 2, evn_class 1, at time: 747866750 in NI 43 and router 43 
post_dlock=1 and dlock thresh=200000 in NI 43
Possible network deadlock in vnet: 2, evn_class 0, at time: 747904500 in NI 17 and router 17 
post_dlock=1 and dlock thresh=200000 in NI 17
Possible network deadlock in vnet: 2, evn_class 0, at time: 747976250 in NI 28 and router 28 
post_dlock=1 and dlock thresh=200000 in NI 28
Possible network deadlock in vnet: 2, evn_class 0, at time: 747996750 in NI 19 and router 19 
post_dlock=1 and dlock thresh=200000 in NI 19
Possible network deadlock in vnet: 2, evn_class 1, at time: 748023250 in NI 37 and router 37 
post_dlock=1 and dlock thresh=200000 in NI 37
Possible network deadlock in vnet: 2, evn_class 1, at time: 748030500 in NI 38 and router 38 
post_dlock=1 and dlock thresh=200000 in NI 38
Possible network deadlock in vnet: 2, evn_class 1, at time: 748177500 in NI 61 and router 61 
post_dlock=1 and dlock thresh=200000 in NI 61
Possible network deadlock in vnet: 2, evn_class 1, at time: 748267500 in NI 46 and router 46 
post_dlock=1 and dlock thresh=200000 in NI 46
Possible network deadlock in vnet: 2, evn_class 1, at time: 748290000 in NI 52 and router 52 
post_dlock=1 and dlock thresh=200000 in NI 52
Possible network deadlock in vnet: 2, evn_class 1, at time: 748479500 in NI 44 and router 44 
post_dlock=1 and dlock thresh=200000 in NI 44
Possible network deadlock in vnet: 2, evn_class 0, at time: 748486750 in NI 10 and router 10 
post_dlock=1 and dlock thresh=200000 in NI 10
Possible network deadlock in vnet: 2, evn_class 1, at time: 748571750 in NI 56 and router 56 
post_dlock=1 and dlock thresh=200000 in NI 56
Possible network deadlock in vnet: 2, evn_class 1, at time: 749136000 in NI 49 and router 49 
post_dlock=1 and dlock thresh=200000 in NI 49
Possible network deadlock in vnet: 2, evn_class 1, at time: 749283000 in NI 59 and router 59 
post_dlock=1 and dlock thresh=200000 in NI 59
Possible network deadlock in vnet: 2, evn_class 1, at time: 751915000 in NI 58 and router 58 
post_dlock=1 and dlock thresh=200000 in NI 58
Possible network deadlock in vnet: 2, evn_class 1, at time: 755719500 in NI 48 and router 48 
post_dlock=1 and dlock thresh=400000 in NI 48
Possible network deadlock in vnet: 2, evn_class 1, at time: 755726250 in NI 32 and router 32 
post_dlock=1 and dlock thresh=400000 in NI 32
Possible network deadlock in vnet: 2, evn_class 1, at time: 755873000 in NI 34 and router 34 
post_dlock=1 and dlock thresh=400000 in NI 34
Possible network deadlock in vnet: 2, evn_class 1, at time: 756079750 in NI 41 and router 41 
post_dlock=1 and dlock thresh=400000 in NI 41
Possible network deadlock in vnet: 2, evn_class 1, at time: 758033000 in NI 25 and router 25 
post_dlock=1 and dlock thresh=400000 in NI 25
Possible network deadlock in vnet: 2, evn_class 1, at time: 772839250 in NI 57 and router 57 
post_dlock=1 and dlock thresh=400000 in NI 57
Possible network deadlock in vnet: 2, evn_class 1, at time: 772866750 in NI 43 and router 43 
post_dlock=1 and dlock thresh=400000 in NI 43
Possible network deadlock in vnet: 2, evn_class 1, at time: 773571750 in NI 56 and router 56 
post_dlock=1 and dlock thresh=400000 in NI 56
Possible network deadlock in vnet: 2, evn_class 1, at time: 805719500 in NI 48 and router 48 
post_dlock=1 and dlock thresh=800000 in NI 48
Possible network deadlock in vnet: 2, evn_class 1, at time: 805873000 in NI 34 and router 34 
post_dlock=1 and dlock thresh=800000 in NI 34
Possible network deadlock in vnet: 2, evn_class 1, at time: 806079750 in NI 41 and router 41 
post_dlock=1 and dlock thresh=800000 in NI 41
Possible network deadlock in vnet: 2, evn_class 1, at time: 808033000 in NI 25 and router 25 
post_dlock=1 and dlock thresh=800000 in NI 25
Possible network deadlock in vnet: 2, evn_class 1, at time: 816398750 in NI 50 and router 50 
post_dlock=1 and dlock thresh=400000 in NI 50
Possible network deadlock in vnet: 2, evn_class 1, at time: 821405250 in NI 55 and router 55 
post_dlock=1 and dlock thresh=400000 in NI 55
Possible network deadlock in vnet: 2, evn_class 1, at time: 821405750 in NI 62 and router 62 
post_dlock=1 and dlock thresh=400000 in NI 62
Possible network deadlock in vnet: 2, evn_class 1, at time: 821770500 in NI 47 and router 47 
post_dlock=1 and dlock thresh=400000 in NI 47
Possible network deadlock in vnet: 2, evn_class 1, at time: 822019750 in NI 61 and router 61 
post_dlock=1 and dlock thresh=400000 in NI 61
Possible network deadlock in vnet: 2, evn_class 1, at time: 822070000 in NI 58 and router 58 
post_dlock=1 and dlock thresh=400000 in NI 58
Possible network deadlock in vnet: 2, evn_class 1, at time: 822079250 in NI 49 and router 49 
post_dlock=1 and dlock thresh=400000 in NI 49
Possible network deadlock in vnet: 2, evn_class 1, at time: 822839250 in NI 57 and router 57 
post_dlock=1 and dlock thresh=800000 in NI 57
Possible network deadlock in vnet: 2, evn_class 1, at time: 822866750 in NI 43 and router 43 
post_dlock=1 and dlock thresh=800000 in NI 43
Possible network deadlock in vnet: 2, evn_class 1, at time: 823041500 in NI 59 and router 59 
post_dlock=1 and dlock thresh=400000 in NI 59
Possible network deadlock in vnet: 2, evn_class 1, at time: 823050250 in NI 52 and router 52 
post_dlock=1 and dlock thresh=400000 in NI 52
Possible network deadlock in vnet: 2, evn_class 1, at time: 823571750 in NI 56 and router 56 
post_dlock=1 and dlock thresh=800000 in NI 56
Possible network deadlock in vnet: 2, evn_class 1, at time: 1012886250 in NI 24 and router 24 
post_dlock=1 and dlock thresh=800000 in NI 24
Possible network deadlock in vnet: 2, evn_class 1, at time: 1089261000 in NI 0 and router 0 
post_dlock=1 and dlock thresh=1600000 in NI 0
Possible network deadlock in vnet: 2, evn_class 1, at time: 1112726250 in NI 16 and router 16 
post_dlock=1 and dlock thresh=1600000 in NI 16
Possible network deadlock in vnet: 2, evn_class 1, at time: 1112780750 in NI 8 and router 8 
post_dlock=1 and dlock thresh=1600000 in NI 8
Possible network deadlock in vnet: 2, evn_class 1, at time: 1406511500 in NI 51 and router 51 
post_dlock=1 and dlock thresh=100000 in NI 51
Possible network deadlock in vnet: 2, evn_class 1, at time: 1593970250 in NI 33 and router 33 
post_dlock=1 and dlock thresh=800000 in NI 33
Exiting @ tick 2147483750 because Network Tester completed simCycles
build/Garnet_standalone/base/statistics.hh:280: warn: One of the stats is a legacy stat. Legacy stat is a stat that does not belong to any statistics::Group. Legacy stat is deprecated.
build/Garnet_standalone/base/statistics.hh:280: warn: One of the stats is a legacy stat. Legacy stat is a stat that does not belong to any statistics::Group. Legacy stat is deprecated.
build/Garnet_standalone/base/statistics.hh:280: warn: One of the stats is a legacy stat. Legacy stat is a stat that does not belong to any statistics::Group. Legacy stat is deprecated.
build/Garnet_standalone/base/statistics.hh:280: warn: One of the stats is a legacy stat. Legacy stat is a stat that does not belong to any statistics::Group. Legacy stat is deprecated.
build/Garnet_standalone/mem/ruby/network/garnet/GarnetNetwork.cc:128: info: Garnet version 3.0
warn: No dot file generated. Please install pydot to generate the dot file and pdf.
build/Garnet_standalone/sim/simulate.cc:192: info: Entering event queue @ 0.  Starting simulation...
build/Garnet_standalone/mem/ruby/system/Sequencer.cc:615: warn: Replacement policy updates recently became the responsibility of SLICC state machines. Make sure to setMRU() near callbacks in .sm files!
