gem5 Simulator System.  https://www.gem5.org
gem5 is copyrighted software; use the --copyright option for details.

gem5 version 22.0.0.2
gem5 compiled Jun 17 2023 14:31:12
gem5 started Nov 18 2023 15:50:16
gem5 executing on mnemosyne14.ecn.purdue.edu, pid 23826
command line: ./build/Garnet_standalone/gem5.fast -d ./synth_outputs/simple/2b/mixed/mclb_hops_4_6_40cpus_4xdirs_4.0GHz/coh/kite_large/0_18/ configs/auto_top/auto_top_synth.py --topology EscapeVirtualNetworks --noi_routers 20 --sim-cycles 2147483647 --injectionrate 0.18 --noc_clk 4.0GHz --sys-clock 4.0GHz --ruby-clock 4.0GHz --noi_clk 2.7GHz --router_map_file configs/topologies/paper_solutions/kite_large.map --flat_vn_map_file configs/topologies/vn_maps_mclb/kite_large_mclb_hops_4vns.vn --flat_nr_map_file configs/topologies/nr_list_mclb/kite_large_mclb.nrl --ruby --mem_or_coh coh --mem-size 320000000 --num-dirs 160 --num-cpus 40 --network garnet --mem-type SimpleMemory --routing-algorithm 2 --use_escape_vns --synth_traffic --vcs-per-vnet 6 --evn_deadlock_partition 2 --evn_n_deadlock_free 1 --evn_min_n_deadlock_free 4

info: Standard input is not a terminal, disabling listeners.
ingesting configs/topologies/vn_maps_mclb/kite_large_mclb_hops_4vns.vn
cpus(40)=[<m5.objects.GarnetSyntheticTraffic.GarnetSyntheticTraffic object at 0x7f7ac12800f0>, <m5.objects.GarnetSyntheticTraffic.GarnetSyntheticTraffic object at 0x7f7ac1280dd8>, <m5.objects.GarnetSyntheticTraffic.GarnetSyntheticTraffic object at 0x7f7ac0dfd0f0>, <m5.objects.GarnetSyntheticTraffic.GarnetSyntheticTraffic object at 0x7f7ac0dfd3c8>, <m5.objects.GarnetSyntheticTraffic.GarnetSyntheticTraffic object at 0x7f7ac0dfd6a0>, <m5.objects.GarnetSyntheticTraffic.GarnetSyntheticTraffic object at 0x7f7ac0dfd978>, <m5.objects.GarnetSyntheticTraffic.GarnetSyntheticTraffic object at 0x7f7ac0dfdc50>, <m5.objects.GarnetSyntheticTraffic.GarnetSyntheticTraffic object at 0x7f7ac0dfdf28>, <m5.objects.GarnetSyntheticTraffic.GarnetSyntheticTraffic object at 0x7f7ac0e06240>, <m5.objects.GarnetSyntheticTraffic.GarnetSyntheticTraffic object at 0x7f7ac0e06518>, <m5.objects.GarnetSyntheticTraffic.GarnetSyntheticTraffic object at 0x7f7ac0e067f0>, <m5.objects.GarnetSyntheticTraffic.GarnetSyntheticTraffic object at 0x7f7ac0e06ac8>, <m5.objects.GarnetSyntheticTraffic.GarnetSyntheticTraffic object at 0x7f7ac12807b8>, <m5.objects.GarnetSyntheticTraffic.GarnetSyntheticTraffic object at 0x7f7ac1270e48>, <m5.objects.GarnetSyntheticTraffic.GarnetSyntheticTraffic object at 0x7f7ac127a668>, <m5.objects.GarnetSyntheticTraffic.GarnetSyntheticTraffic object at 0x7f7ac127acc0>, <m5.objects.GarnetSyntheticTraffic.GarnetSyntheticTraffic object at 0x7f7ac0e06d30>, <m5.objects.GarnetSyntheticTraffic.GarnetSyntheticTraffic object at 0x7f7ac0e12048>, <m5.objects.GarnetSyntheticTraffic.GarnetSyntheticTraffic object at 0x7f7ac0e12320>, <m5.objects.GarnetSyntheticTraffic.GarnetSyntheticTraffic object at 0x7f7ac0e125f8>, <m5.objects.GarnetSyntheticTraffic.GarnetSyntheticTraffic object at 0x7f7ac0e128d0>, <m5.objects.GarnetSyntheticTraffic.GarnetSyntheticTraffic object at 0x7f7ac0e12ba8>, <m5.objects.GarnetSyntheticTraffic.GarnetSyntheticTraffic object at 0x7f7ac0e12e80>, <m5.objects.GarnetSyntheticTraffic.GarnetSyntheticTraffic object at 0x7f7ac0e19198>, <m5.objects.GarnetSyntheticTraffic.GarnetSyntheticTraffic object at 0x7f7ac0e19470>, <m5.objects.GarnetSyntheticTraffic.GarnetSyntheticTraffic object at 0x7f7ac0e19748>, <m5.objects.GarnetSyntheticTraffic.GarnetSyntheticTraffic object at 0x7f7ac0e19a20>, <m5.objects.GarnetSyntheticTraffic.GarnetSyntheticTraffic object at 0x7f7ac0e19cf8>, <m5.objects.GarnetSyntheticTraffic.GarnetSyntheticTraffic object at 0x7f7ac0e19fd0>, <m5.objects.GarnetSyntheticTraffic.GarnetSyntheticTraffic object at 0x7f7ac0e212e8>, <m5.objects.GarnetSyntheticTraffic.GarnetSyntheticTraffic object at 0x7f7ac0e215c0>, <m5.objects.GarnetSyntheticTraffic.GarnetSyntheticTraffic object at 0x7f7ac0e21898>, <m5.objects.GarnetSyntheticTraffic.GarnetSyntheticTraffic object at 0x7f7ac0e21b70>, <m5.objects.GarnetSyntheticTraffic.GarnetSyntheticTraffic object at 0x7f7ac0e21e48>, <m5.objects.GarnetSyntheticTraffic.GarnetSyntheticTraffic object at 0x7f7ac0e2a160>, <m5.objects.GarnetSyntheticTraffic.GarnetSyntheticTraffic object at 0x7f7ac0e2a438>, <m5.objects.GarnetSyntheticTraffic.GarnetSyntheticTraffic object at 0x7f7ac0e2a710>, <m5.objects.GarnetSyntheticTraffic.GarnetSyntheticTraffic object at 0x7f7ac0e2a9e8>, <m5.objects.GarnetSyntheticTraffic.GarnetSyntheticTraffic object at 0x7f7ac0e2acc0>, <m5.objects.GarnetSyntheticTraffic.GarnetSyntheticTraffic object at 0x7f7ac0e2af98>])
ingesting configs/topologies/nr_list_mclb/kite_large_mclb.nrl
ingesting configs/topologies/vn_maps_mclb/kite_large_mclb_hops_4vns.vn
ext_cdc_required = True
