gem5 Simulator System.  https://www.gem5.org
gem5 is copyrighted software; use the --copyright option for details.

gem5 version 22.0.0.2
gem5 compiled Jun 17 2023 14:31:12
gem5 started Nov 18 2023 15:51:06
gem5 executing on mnemosyne24.ecn.purdue.edu, pid 15166
command line: ./build/Garnet_standalone/gem5.fast -d ./synth_outputs/simple/2b/mixed/nndbt_none_2_6_40cpus_4xdirs_4.0GHz/mem/ns_m_scop/0_155/ configs/auto_top/auto_top_synth.py --topology EscapeVirtualNetworks --noi_routers 20 --sim-cycles 2147483647 --injectionrate 0.155 --noc_clk 4.0GHz --sys-clock 4.0GHz --ruby-clock 4.0GHz --noi_clk 3.0GHz --router_map_file configs/topologies/paper_solutions/ns_m_scop.map --flat_vn_map_file configs/topologies/vn_maps_ndbt/ns_m_scop_nndbt_none_2vns.vn --flat_nr_map_file configs/topologies/nr_list_ndbt/ns_m_scop_nndbt.nrl --ruby --mem_or_coh mem --mem-size 320000000 --num-dirs 64 --num-cpus 40 --network garnet --mem-type SimpleMemory --routing-algorithm 2 --use_escape_vns --synth_traffic --vcs-per-vnet 6 --evn_deadlock_partition 4 --evn_n_deadlock_free 1 --evn_min_n_deadlock_free 2

info: Standard input is not a terminal, disabling listeners.
ingesting configs/topologies/vn_maps_ndbt/ns_m_scop_nndbt_none_2vns.vn
cpus(40)=[<m5.objects.GarnetSyntheticTraffic.GarnetSyntheticTraffic object at 0x7f9aee9f9080>, <m5.objects.GarnetSyntheticTraffic.GarnetSyntheticTraffic object at 0x7f9aee9f9e48>, <m5.objects.GarnetSyntheticTraffic.GarnetSyntheticTraffic object at 0x7f9aee576160>, <m5.objects.GarnetSyntheticTraffic.GarnetSyntheticTraffic object at 0x7f9aee576438>, <m5.objects.GarnetSyntheticTraffic.GarnetSyntheticTraffic object at 0x7f9aee576710>, <m5.objects.GarnetSyntheticTraffic.GarnetSyntheticTraffic object at 0x7f9aee5769e8>, <m5.objects.GarnetSyntheticTraffic.GarnetSyntheticTraffic object at 0x7f9aee576cc0>, <m5.objects.GarnetSyntheticTraffic.GarnetSyntheticTraffic object at 0x7f9aee576f98>, <m5.objects.GarnetSyntheticTraffic.GarnetSyntheticTraffic object at 0x7f9aee57f2b0>, <m5.objects.GarnetSyntheticTraffic.GarnetSyntheticTraffic object at 0x7f9aee57f588>, <m5.objects.GarnetSyntheticTraffic.GarnetSyntheticTraffic object at 0x7f9aee57f860>, <m5.objects.GarnetSyntheticTraffic.GarnetSyntheticTraffic object at 0x7f9aee57fb38>, <m5.objects.GarnetSyntheticTraffic.GarnetSyntheticTraffic object at 0x7f9aee9f9898>, <m5.objects.GarnetSyntheticTraffic.GarnetSyntheticTraffic object at 0x7f9aee9e9eb8>, <m5.objects.GarnetSyntheticTraffic.GarnetSyntheticTraffic object at 0x7f9aee9f3710>, <m5.objects.GarnetSyntheticTraffic.GarnetSyntheticTraffic object at 0x7f9aee9f3d68>, <m5.objects.GarnetSyntheticTraffic.GarnetSyntheticTraffic object at 0x7f9aee57fda0>, <m5.objects.GarnetSyntheticTraffic.GarnetSyntheticTraffic object at 0x7f9aee58b0b8>, <m5.objects.GarnetSyntheticTraffic.GarnetSyntheticTraffic object at 0x7f9aee58b390>, <m5.objects.GarnetSyntheticTraffic.GarnetSyntheticTraffic object at 0x7f9aee58b668>, <m5.objects.GarnetSyntheticTraffic.GarnetSyntheticTraffic object at 0x7f9aee58b940>, <m5.objects.GarnetSyntheticTraffic.GarnetSyntheticTraffic object at 0x7f9aee58bc18>, <m5.objects.GarnetSyntheticTraffic.GarnetSyntheticTraffic object at 0x7f9aee58bef0>, <m5.objects.GarnetSyntheticTraffic.GarnetSyntheticTraffic object at 0x7f9aee592208>, <m5.objects.GarnetSyntheticTraffic.GarnetSyntheticTraffic object at 0x7f9aee5924e0>, <m5.objects.GarnetSyntheticTraffic.GarnetSyntheticTraffic object at 0x7f9aee5927b8>, <m5.objects.GarnetSyntheticTraffic.GarnetSyntheticTraffic object at 0x7f9aee592a90>, <m5.objects.GarnetSyntheticTraffic.GarnetSyntheticTraffic object at 0x7f9aee592d68>, <m5.objects.GarnetSyntheticTraffic.GarnetSyntheticTraffic object at 0x7f9aee59a080>, <m5.objects.GarnetSyntheticTraffic.GarnetSyntheticTraffic object at 0x7f9aee59a358>, <m5.objects.GarnetSyntheticTraffic.GarnetSyntheticTraffic object at 0x7f9aee59a630>, <m5.objects.GarnetSyntheticTraffic.GarnetSyntheticTraffic object at 0x7f9aee59a908>, <m5.objects.GarnetSyntheticTraffic.GarnetSyntheticTraffic object at 0x7f9aee59abe0>, <m5.objects.GarnetSyntheticTraffic.GarnetSyntheticTraffic object at 0x7f9aee59aeb8>, <m5.objects.GarnetSyntheticTraffic.GarnetSyntheticTraffic object at 0x7f9aee5a31d0>, <m5.objects.GarnetSyntheticTraffic.GarnetSyntheticTraffic object at 0x7f9aee5a34a8>, <m5.objects.GarnetSyntheticTraffic.GarnetSyntheticTraffic object at 0x7f9aee5a3780>, <m5.objects.GarnetSyntheticTraffic.GarnetSyntheticTraffic object at 0x7f9aee5a3a58>, <m5.objects.GarnetSyntheticTraffic.GarnetSyntheticTraffic object at 0x7f9aee5a3d30>, <m5.objects.GarnetSyntheticTraffic.GarnetSyntheticTraffic object at 0x7f9aee5aa048>])
ingesting configs/topologies/nr_list_ndbt/ns_m_scop_nndbt.nrl
ingesting configs/topologies/vn_maps_ndbt/ns_m_scop_nndbt_none_2vns.vn
ext_cdc_required = True
