
---------- Begin Simulation Statistics ----------
simSeconds                                   0.002147                       # Number of seconds simulated (Second)
simTicks                                   2147483750                       # Number of ticks simulated (Tick)
finalTick                                  2147483750                       # Number of ticks from beginning of simulation (restored from checkpoints and never reset) (Tick)
simFreq                                  1000000000000                       # The number of ticks per simulated second ((Tick/Second))
hostSeconds                                   6980.08                       # Real time elapsed on the host (Second)
hostTickRate                                   307659                       # The number of ticks simulated per host second (ticks/s) ((Tick/Second))
hostMemory                                    5813536                       # Number of bytes of host memory used (Byte)
system.clk_domain.clock                           250                       # Clock period in ticks (Tick)
system.cpu0.power_state.pwrStateResidencyTicks::UNDEFINED   2147483750                       # Cumulative time (in ticks) in various power states (Tick)
system.cpu1.power_state.pwrStateResidencyTicks::UNDEFINED   2147483750                       # Cumulative time (in ticks) in various power states (Tick)
system.cpu10.power_state.pwrStateResidencyTicks::UNDEFINED   2147483750                       # Cumulative time (in ticks) in various power states (Tick)
system.cpu11.power_state.pwrStateResidencyTicks::UNDEFINED   2147483750                       # Cumulative time (in ticks) in various power states (Tick)
system.cpu12.power_state.pwrStateResidencyTicks::UNDEFINED   2147483750                       # Cumulative time (in ticks) in various power states (Tick)
system.cpu13.power_state.pwrStateResidencyTicks::UNDEFINED   2147483750                       # Cumulative time (in ticks) in various power states (Tick)
system.cpu14.power_state.pwrStateResidencyTicks::UNDEFINED   2147483750                       # Cumulative time (in ticks) in various power states (Tick)
system.cpu15.power_state.pwrStateResidencyTicks::UNDEFINED   2147483750                       # Cumulative time (in ticks) in various power states (Tick)
system.cpu16.power_state.pwrStateResidencyTicks::UNDEFINED   2147483750                       # Cumulative time (in ticks) in various power states (Tick)
system.cpu17.power_state.pwrStateResidencyTicks::UNDEFINED   2147483750                       # Cumulative time (in ticks) in various power states (Tick)
system.cpu18.power_state.pwrStateResidencyTicks::UNDEFINED   2147483750                       # Cumulative time (in ticks) in various power states (Tick)
system.cpu19.power_state.pwrStateResidencyTicks::UNDEFINED   2147483750                       # Cumulative time (in ticks) in various power states (Tick)
system.cpu2.power_state.pwrStateResidencyTicks::UNDEFINED   2147483750                       # Cumulative time (in ticks) in various power states (Tick)
system.cpu20.power_state.pwrStateResidencyTicks::UNDEFINED   2147483750                       # Cumulative time (in ticks) in various power states (Tick)
system.cpu21.power_state.pwrStateResidencyTicks::UNDEFINED   2147483750                       # Cumulative time (in ticks) in various power states (Tick)
system.cpu22.power_state.pwrStateResidencyTicks::UNDEFINED   2147483750                       # Cumulative time (in ticks) in various power states (Tick)
system.cpu23.power_state.pwrStateResidencyTicks::UNDEFINED   2147483750                       # Cumulative time (in ticks) in various power states (Tick)
system.cpu24.power_state.pwrStateResidencyTicks::UNDEFINED   2147483750                       # Cumulative time (in ticks) in various power states (Tick)
system.cpu25.power_state.pwrStateResidencyTicks::UNDEFINED   2147483750                       # Cumulative time (in ticks) in various power states (Tick)
system.cpu26.power_state.pwrStateResidencyTicks::UNDEFINED   2147483750                       # Cumulative time (in ticks) in various power states (Tick)
system.cpu27.power_state.pwrStateResidencyTicks::UNDEFINED   2147483750                       # Cumulative time (in ticks) in various power states (Tick)
system.cpu28.power_state.pwrStateResidencyTicks::UNDEFINED   2147483750                       # Cumulative time (in ticks) in various power states (Tick)
system.cpu29.power_state.pwrStateResidencyTicks::UNDEFINED   2147483750                       # Cumulative time (in ticks) in various power states (Tick)
system.cpu3.power_state.pwrStateResidencyTicks::UNDEFINED   2147483750                       # Cumulative time (in ticks) in various power states (Tick)
system.cpu30.power_state.pwrStateResidencyTicks::UNDEFINED   2147483750                       # Cumulative time (in ticks) in various power states (Tick)
system.cpu31.power_state.pwrStateResidencyTicks::UNDEFINED   2147483750                       # Cumulative time (in ticks) in various power states (Tick)
system.cpu32.power_state.pwrStateResidencyTicks::UNDEFINED   2147483750                       # Cumulative time (in ticks) in various power states (Tick)
system.cpu33.power_state.pwrStateResidencyTicks::UNDEFINED   2147483750                       # Cumulative time (in ticks) in various power states (Tick)
system.cpu34.power_state.pwrStateResidencyTicks::UNDEFINED   2147483750                       # Cumulative time (in ticks) in various power states (Tick)
system.cpu35.power_state.pwrStateResidencyTicks::UNDEFINED   2147483750                       # Cumulative time (in ticks) in various power states (Tick)
system.cpu36.power_state.pwrStateResidencyTicks::UNDEFINED   2147483750                       # Cumulative time (in ticks) in various power states (Tick)
system.cpu37.power_state.pwrStateResidencyTicks::UNDEFINED   2147483750                       # Cumulative time (in ticks) in various power states (Tick)
system.cpu38.power_state.pwrStateResidencyTicks::UNDEFINED   2147483750                       # Cumulative time (in ticks) in various power states (Tick)
system.cpu39.power_state.pwrStateResidencyTicks::UNDEFINED   2147483750                       # Cumulative time (in ticks) in various power states (Tick)
system.cpu4.power_state.pwrStateResidencyTicks::UNDEFINED   2147483750                       # Cumulative time (in ticks) in various power states (Tick)
system.cpu5.power_state.pwrStateResidencyTicks::UNDEFINED   2147483750                       # Cumulative time (in ticks) in various power states (Tick)
system.cpu6.power_state.pwrStateResidencyTicks::UNDEFINED   2147483750                       # Cumulative time (in ticks) in various power states (Tick)
system.cpu7.power_state.pwrStateResidencyTicks::UNDEFINED   2147483750                       # Cumulative time (in ticks) in various power states (Tick)
system.cpu8.power_state.pwrStateResidencyTicks::UNDEFINED   2147483750                       # Cumulative time (in ticks) in various power states (Tick)
system.cpu9.power_state.pwrStateResidencyTicks::UNDEFINED   2147483750                       # Cumulative time (in ticks) in various power states (Tick)
system.mem_ctrls0.power_state.pwrStateResidencyTicks::UNDEFINED   2147483750                       # Cumulative time (in ticks) in various power states (Tick)
system.mem_ctrls1.power_state.pwrStateResidencyTicks::UNDEFINED   2147483750                       # Cumulative time (in ticks) in various power states (Tick)
system.mem_ctrls10.power_state.pwrStateResidencyTicks::UNDEFINED   2147483750                       # Cumulative time (in ticks) in various power states (Tick)
system.mem_ctrls100.power_state.pwrStateResidencyTicks::UNDEFINED   2147483750                       # Cumulative time (in ticks) in various power states (Tick)
system.mem_ctrls101.power_state.pwrStateResidencyTicks::UNDEFINED   2147483750                       # Cumulative time (in ticks) in various power states (Tick)
system.mem_ctrls102.power_state.pwrStateResidencyTicks::UNDEFINED   2147483750                       # Cumulative time (in ticks) in various power states (Tick)
system.mem_ctrls103.power_state.pwrStateResidencyTicks::UNDEFINED   2147483750                       # Cumulative time (in ticks) in various power states (Tick)
system.mem_ctrls104.power_state.pwrStateResidencyTicks::UNDEFINED   2147483750                       # Cumulative time (in ticks) in various power states (Tick)
system.mem_ctrls105.power_state.pwrStateResidencyTicks::UNDEFINED   2147483750                       # Cumulative time (in ticks) in various power states (Tick)
system.mem_ctrls106.power_state.pwrStateResidencyTicks::UNDEFINED   2147483750                       # Cumulative time (in ticks) in various power states (Tick)
system.mem_ctrls107.power_state.pwrStateResidencyTicks::UNDEFINED   2147483750                       # Cumulative time (in ticks) in various power states (Tick)
system.mem_ctrls108.power_state.pwrStateResidencyTicks::UNDEFINED   2147483750                       # Cumulative time (in ticks) in various power states (Tick)
system.mem_ctrls109.power_state.pwrStateResidencyTicks::UNDEFINED   2147483750                       # Cumulative time (in ticks) in various power states (Tick)
system.mem_ctrls11.power_state.pwrStateResidencyTicks::UNDEFINED   2147483750                       # Cumulative time (in ticks) in various power states (Tick)
system.mem_ctrls110.power_state.pwrStateResidencyTicks::UNDEFINED   2147483750                       # Cumulative time (in ticks) in various power states (Tick)
system.mem_ctrls111.power_state.pwrStateResidencyTicks::UNDEFINED   2147483750                       # Cumulative time (in ticks) in various power states (Tick)
system.mem_ctrls112.power_state.pwrStateResidencyTicks::UNDEFINED   2147483750                       # Cumulative time (in ticks) in various power states (Tick)
system.mem_ctrls113.power_state.pwrStateResidencyTicks::UNDEFINED   2147483750                       # Cumulative time (in ticks) in various power states (Tick)
system.mem_ctrls114.power_state.pwrStateResidencyTicks::UNDEFINED   2147483750                       # Cumulative time (in ticks) in various power states (Tick)
system.mem_ctrls115.power_state.pwrStateResidencyTicks::UNDEFINED   2147483750                       # Cumulative time (in ticks) in various power states (Tick)
system.mem_ctrls116.power_state.pwrStateResidencyTicks::UNDEFINED   2147483750                       # Cumulative time (in ticks) in various power states (Tick)
system.mem_ctrls117.power_state.pwrStateResidencyTicks::UNDEFINED   2147483750                       # Cumulative time (in ticks) in various power states (Tick)
system.mem_ctrls118.power_state.pwrStateResidencyTicks::UNDEFINED   2147483750                       # Cumulative time (in ticks) in various power states (Tick)
system.mem_ctrls119.power_state.pwrStateResidencyTicks::UNDEFINED   2147483750                       # Cumulative time (in ticks) in various power states (Tick)
system.mem_ctrls12.power_state.pwrStateResidencyTicks::UNDEFINED   2147483750                       # Cumulative time (in ticks) in various power states (Tick)
system.mem_ctrls120.power_state.pwrStateResidencyTicks::UNDEFINED   2147483750                       # Cumulative time (in ticks) in various power states (Tick)
system.mem_ctrls121.power_state.pwrStateResidencyTicks::UNDEFINED   2147483750                       # Cumulative time (in ticks) in various power states (Tick)
system.mem_ctrls122.power_state.pwrStateResidencyTicks::UNDEFINED   2147483750                       # Cumulative time (in ticks) in various power states (Tick)
system.mem_ctrls123.power_state.pwrStateResidencyTicks::UNDEFINED   2147483750                       # Cumulative time (in ticks) in various power states (Tick)
system.mem_ctrls124.power_state.pwrStateResidencyTicks::UNDEFINED   2147483750                       # Cumulative time (in ticks) in various power states (Tick)
system.mem_ctrls125.power_state.pwrStateResidencyTicks::UNDEFINED   2147483750                       # Cumulative time (in ticks) in various power states (Tick)
system.mem_ctrls126.power_state.pwrStateResidencyTicks::UNDEFINED   2147483750                       # Cumulative time (in ticks) in various power states (Tick)
system.mem_ctrls127.power_state.pwrStateResidencyTicks::UNDEFINED   2147483750                       # Cumulative time (in ticks) in various power states (Tick)
system.mem_ctrls128.power_state.pwrStateResidencyTicks::UNDEFINED   2147483750                       # Cumulative time (in ticks) in various power states (Tick)
system.mem_ctrls129.power_state.pwrStateResidencyTicks::UNDEFINED   2147483750                       # Cumulative time (in ticks) in various power states (Tick)
system.mem_ctrls13.power_state.pwrStateResidencyTicks::UNDEFINED   2147483750                       # Cumulative time (in ticks) in various power states (Tick)
system.mem_ctrls130.power_state.pwrStateResidencyTicks::UNDEFINED   2147483750                       # Cumulative time (in ticks) in various power states (Tick)
system.mem_ctrls131.power_state.pwrStateResidencyTicks::UNDEFINED   2147483750                       # Cumulative time (in ticks) in various power states (Tick)
system.mem_ctrls132.power_state.pwrStateResidencyTicks::UNDEFINED   2147483750                       # Cumulative time (in ticks) in various power states (Tick)
system.mem_ctrls133.power_state.pwrStateResidencyTicks::UNDEFINED   2147483750                       # Cumulative time (in ticks) in various power states (Tick)
system.mem_ctrls134.power_state.pwrStateResidencyTicks::UNDEFINED   2147483750                       # Cumulative time (in ticks) in various power states (Tick)
system.mem_ctrls135.power_state.pwrStateResidencyTicks::UNDEFINED   2147483750                       # Cumulative time (in ticks) in various power states (Tick)
system.mem_ctrls136.power_state.pwrStateResidencyTicks::UNDEFINED   2147483750                       # Cumulative time (in ticks) in various power states (Tick)
system.mem_ctrls137.power_state.pwrStateResidencyTicks::UNDEFINED   2147483750                       # Cumulative time (in ticks) in various power states (Tick)
system.mem_ctrls138.power_state.pwrStateResidencyTicks::UNDEFINED   2147483750                       # Cumulative time (in ticks) in various power states (Tick)
system.mem_ctrls139.power_state.pwrStateResidencyTicks::UNDEFINED   2147483750                       # Cumulative time (in ticks) in various power states (Tick)
system.mem_ctrls14.power_state.pwrStateResidencyTicks::UNDEFINED   2147483750                       # Cumulative time (in ticks) in various power states (Tick)
system.mem_ctrls140.power_state.pwrStateResidencyTicks::UNDEFINED   2147483750                       # Cumulative time (in ticks) in various power states (Tick)
system.mem_ctrls141.power_state.pwrStateResidencyTicks::UNDEFINED   2147483750                       # Cumulative time (in ticks) in various power states (Tick)
system.mem_ctrls142.power_state.pwrStateResidencyTicks::UNDEFINED   2147483750                       # Cumulative time (in ticks) in various power states (Tick)
system.mem_ctrls143.power_state.pwrStateResidencyTicks::UNDEFINED   2147483750                       # Cumulative time (in ticks) in various power states (Tick)
system.mem_ctrls144.power_state.pwrStateResidencyTicks::UNDEFINED   2147483750                       # Cumulative time (in ticks) in various power states (Tick)
system.mem_ctrls145.power_state.pwrStateResidencyTicks::UNDEFINED   2147483750                       # Cumulative time (in ticks) in various power states (Tick)
system.mem_ctrls146.power_state.pwrStateResidencyTicks::UNDEFINED   2147483750                       # Cumulative time (in ticks) in various power states (Tick)
system.mem_ctrls147.power_state.pwrStateResidencyTicks::UNDEFINED   2147483750                       # Cumulative time (in ticks) in various power states (Tick)
system.mem_ctrls148.power_state.pwrStateResidencyTicks::UNDEFINED   2147483750                       # Cumulative time (in ticks) in various power states (Tick)
system.mem_ctrls149.power_state.pwrStateResidencyTicks::UNDEFINED   2147483750                       # Cumulative time (in ticks) in various power states (Tick)
system.mem_ctrls15.power_state.pwrStateResidencyTicks::UNDEFINED   2147483750                       # Cumulative time (in ticks) in various power states (Tick)
system.mem_ctrls150.power_state.pwrStateResidencyTicks::UNDEFINED   2147483750                       # Cumulative time (in ticks) in various power states (Tick)
system.mem_ctrls151.power_state.pwrStateResidencyTicks::UNDEFINED   2147483750                       # Cumulative time (in ticks) in various power states (Tick)
system.mem_ctrls152.power_state.pwrStateResidencyTicks::UNDEFINED   2147483750                       # Cumulative time (in ticks) in various power states (Tick)
system.mem_ctrls153.power_state.pwrStateResidencyTicks::UNDEFINED   2147483750                       # Cumulative time (in ticks) in various power states (Tick)
system.mem_ctrls154.power_state.pwrStateResidencyTicks::UNDEFINED   2147483750                       # Cumulative time (in ticks) in various power states (Tick)
system.mem_ctrls155.power_state.pwrStateResidencyTicks::UNDEFINED   2147483750                       # Cumulative time (in ticks) in various power states (Tick)
system.mem_ctrls156.power_state.pwrStateResidencyTicks::UNDEFINED   2147483750                       # Cumulative time (in ticks) in various power states (Tick)
system.mem_ctrls157.power_state.pwrStateResidencyTicks::UNDEFINED   2147483750                       # Cumulative time (in ticks) in various power states (Tick)
system.mem_ctrls158.power_state.pwrStateResidencyTicks::UNDEFINED   2147483750                       # Cumulative time (in ticks) in various power states (Tick)
system.mem_ctrls159.power_state.pwrStateResidencyTicks::UNDEFINED   2147483750                       # Cumulative time (in ticks) in various power states (Tick)
system.mem_ctrls16.power_state.pwrStateResidencyTicks::UNDEFINED   2147483750                       # Cumulative time (in ticks) in various power states (Tick)
system.mem_ctrls17.power_state.pwrStateResidencyTicks::UNDEFINED   2147483750                       # Cumulative time (in ticks) in various power states (Tick)
system.mem_ctrls18.power_state.pwrStateResidencyTicks::UNDEFINED   2147483750                       # Cumulative time (in ticks) in various power states (Tick)
system.mem_ctrls19.power_state.pwrStateResidencyTicks::UNDEFINED   2147483750                       # Cumulative time (in ticks) in various power states (Tick)
system.mem_ctrls2.power_state.pwrStateResidencyTicks::UNDEFINED   2147483750                       # Cumulative time (in ticks) in various power states (Tick)
system.mem_ctrls20.power_state.pwrStateResidencyTicks::UNDEFINED   2147483750                       # Cumulative time (in ticks) in various power states (Tick)
system.mem_ctrls21.power_state.pwrStateResidencyTicks::UNDEFINED   2147483750                       # Cumulative time (in ticks) in various power states (Tick)
system.mem_ctrls22.power_state.pwrStateResidencyTicks::UNDEFINED   2147483750                       # Cumulative time (in ticks) in various power states (Tick)
system.mem_ctrls23.power_state.pwrStateResidencyTicks::UNDEFINED   2147483750                       # Cumulative time (in ticks) in various power states (Tick)
system.mem_ctrls24.power_state.pwrStateResidencyTicks::UNDEFINED   2147483750                       # Cumulative time (in ticks) in various power states (Tick)
system.mem_ctrls25.power_state.pwrStateResidencyTicks::UNDEFINED   2147483750                       # Cumulative time (in ticks) in various power states (Tick)
system.mem_ctrls26.power_state.pwrStateResidencyTicks::UNDEFINED   2147483750                       # Cumulative time (in ticks) in various power states (Tick)
system.mem_ctrls27.power_state.pwrStateResidencyTicks::UNDEFINED   2147483750                       # Cumulative time (in ticks) in various power states (Tick)
system.mem_ctrls28.power_state.pwrStateResidencyTicks::UNDEFINED   2147483750                       # Cumulative time (in ticks) in various power states (Tick)
system.mem_ctrls29.power_state.pwrStateResidencyTicks::UNDEFINED   2147483750                       # Cumulative time (in ticks) in various power states (Tick)
system.mem_ctrls3.power_state.pwrStateResidencyTicks::UNDEFINED   2147483750                       # Cumulative time (in ticks) in various power states (Tick)
system.mem_ctrls30.power_state.pwrStateResidencyTicks::UNDEFINED   2147483750                       # Cumulative time (in ticks) in various power states (Tick)
system.mem_ctrls31.power_state.pwrStateResidencyTicks::UNDEFINED   2147483750                       # Cumulative time (in ticks) in various power states (Tick)
system.mem_ctrls32.power_state.pwrStateResidencyTicks::UNDEFINED   2147483750                       # Cumulative time (in ticks) in various power states (Tick)
system.mem_ctrls33.power_state.pwrStateResidencyTicks::UNDEFINED   2147483750                       # Cumulative time (in ticks) in various power states (Tick)
system.mem_ctrls34.power_state.pwrStateResidencyTicks::UNDEFINED   2147483750                       # Cumulative time (in ticks) in various power states (Tick)
system.mem_ctrls35.power_state.pwrStateResidencyTicks::UNDEFINED   2147483750                       # Cumulative time (in ticks) in various power states (Tick)
system.mem_ctrls36.power_state.pwrStateResidencyTicks::UNDEFINED   2147483750                       # Cumulative time (in ticks) in various power states (Tick)
system.mem_ctrls37.power_state.pwrStateResidencyTicks::UNDEFINED   2147483750                       # Cumulative time (in ticks) in various power states (Tick)
system.mem_ctrls38.power_state.pwrStateResidencyTicks::UNDEFINED   2147483750                       # Cumulative time (in ticks) in various power states (Tick)
system.mem_ctrls39.power_state.pwrStateResidencyTicks::UNDEFINED   2147483750                       # Cumulative time (in ticks) in various power states (Tick)
system.mem_ctrls4.power_state.pwrStateResidencyTicks::UNDEFINED   2147483750                       # Cumulative time (in ticks) in various power states (Tick)
system.mem_ctrls40.power_state.pwrStateResidencyTicks::UNDEFINED   2147483750                       # Cumulative time (in ticks) in various power states (Tick)
system.mem_ctrls41.power_state.pwrStateResidencyTicks::UNDEFINED   2147483750                       # Cumulative time (in ticks) in various power states (Tick)
system.mem_ctrls42.power_state.pwrStateResidencyTicks::UNDEFINED   2147483750                       # Cumulative time (in ticks) in various power states (Tick)
system.mem_ctrls43.power_state.pwrStateResidencyTicks::UNDEFINED   2147483750                       # Cumulative time (in ticks) in various power states (Tick)
system.mem_ctrls44.power_state.pwrStateResidencyTicks::UNDEFINED   2147483750                       # Cumulative time (in ticks) in various power states (Tick)
system.mem_ctrls45.power_state.pwrStateResidencyTicks::UNDEFINED   2147483750                       # Cumulative time (in ticks) in various power states (Tick)
system.mem_ctrls46.power_state.pwrStateResidencyTicks::UNDEFINED   2147483750                       # Cumulative time (in ticks) in various power states (Tick)
system.mem_ctrls47.power_state.pwrStateResidencyTicks::UNDEFINED   2147483750                       # Cumulative time (in ticks) in various power states (Tick)
system.mem_ctrls48.power_state.pwrStateResidencyTicks::UNDEFINED   2147483750                       # Cumulative time (in ticks) in various power states (Tick)
system.mem_ctrls49.power_state.pwrStateResidencyTicks::UNDEFINED   2147483750                       # Cumulative time (in ticks) in various power states (Tick)
system.mem_ctrls5.power_state.pwrStateResidencyTicks::UNDEFINED   2147483750                       # Cumulative time (in ticks) in various power states (Tick)
system.mem_ctrls50.power_state.pwrStateResidencyTicks::UNDEFINED   2147483750                       # Cumulative time (in ticks) in various power states (Tick)
system.mem_ctrls51.power_state.pwrStateResidencyTicks::UNDEFINED   2147483750                       # Cumulative time (in ticks) in various power states (Tick)
system.mem_ctrls52.power_state.pwrStateResidencyTicks::UNDEFINED   2147483750                       # Cumulative time (in ticks) in various power states (Tick)
system.mem_ctrls53.power_state.pwrStateResidencyTicks::UNDEFINED   2147483750                       # Cumulative time (in ticks) in various power states (Tick)
system.mem_ctrls54.power_state.pwrStateResidencyTicks::UNDEFINED   2147483750                       # Cumulative time (in ticks) in various power states (Tick)
system.mem_ctrls55.power_state.pwrStateResidencyTicks::UNDEFINED   2147483750                       # Cumulative time (in ticks) in various power states (Tick)
system.mem_ctrls56.power_state.pwrStateResidencyTicks::UNDEFINED   2147483750                       # Cumulative time (in ticks) in various power states (Tick)
system.mem_ctrls57.power_state.pwrStateResidencyTicks::UNDEFINED   2147483750                       # Cumulative time (in ticks) in various power states (Tick)
system.mem_ctrls58.power_state.pwrStateResidencyTicks::UNDEFINED   2147483750                       # Cumulative time (in ticks) in various power states (Tick)
system.mem_ctrls59.power_state.pwrStateResidencyTicks::UNDEFINED   2147483750                       # Cumulative time (in ticks) in various power states (Tick)
system.mem_ctrls6.power_state.pwrStateResidencyTicks::UNDEFINED   2147483750                       # Cumulative time (in ticks) in various power states (Tick)
system.mem_ctrls60.power_state.pwrStateResidencyTicks::UNDEFINED   2147483750                       # Cumulative time (in ticks) in various power states (Tick)
system.mem_ctrls61.power_state.pwrStateResidencyTicks::UNDEFINED   2147483750                       # Cumulative time (in ticks) in various power states (Tick)
system.mem_ctrls62.power_state.pwrStateResidencyTicks::UNDEFINED   2147483750                       # Cumulative time (in ticks) in various power states (Tick)
system.mem_ctrls63.power_state.pwrStateResidencyTicks::UNDEFINED   2147483750                       # Cumulative time (in ticks) in various power states (Tick)
system.mem_ctrls64.power_state.pwrStateResidencyTicks::UNDEFINED   2147483750                       # Cumulative time (in ticks) in various power states (Tick)
system.mem_ctrls65.power_state.pwrStateResidencyTicks::UNDEFINED   2147483750                       # Cumulative time (in ticks) in various power states (Tick)
system.mem_ctrls66.power_state.pwrStateResidencyTicks::UNDEFINED   2147483750                       # Cumulative time (in ticks) in various power states (Tick)
system.mem_ctrls67.power_state.pwrStateResidencyTicks::UNDEFINED   2147483750                       # Cumulative time (in ticks) in various power states (Tick)
system.mem_ctrls68.power_state.pwrStateResidencyTicks::UNDEFINED   2147483750                       # Cumulative time (in ticks) in various power states (Tick)
system.mem_ctrls69.power_state.pwrStateResidencyTicks::UNDEFINED   2147483750                       # Cumulative time (in ticks) in various power states (Tick)
system.mem_ctrls7.power_state.pwrStateResidencyTicks::UNDEFINED   2147483750                       # Cumulative time (in ticks) in various power states (Tick)
system.mem_ctrls70.power_state.pwrStateResidencyTicks::UNDEFINED   2147483750                       # Cumulative time (in ticks) in various power states (Tick)
system.mem_ctrls71.power_state.pwrStateResidencyTicks::UNDEFINED   2147483750                       # Cumulative time (in ticks) in various power states (Tick)
system.mem_ctrls72.power_state.pwrStateResidencyTicks::UNDEFINED   2147483750                       # Cumulative time (in ticks) in various power states (Tick)
system.mem_ctrls73.power_state.pwrStateResidencyTicks::UNDEFINED   2147483750                       # Cumulative time (in ticks) in various power states (Tick)
system.mem_ctrls74.power_state.pwrStateResidencyTicks::UNDEFINED   2147483750                       # Cumulative time (in ticks) in various power states (Tick)
system.mem_ctrls75.power_state.pwrStateResidencyTicks::UNDEFINED   2147483750                       # Cumulative time (in ticks) in various power states (Tick)
system.mem_ctrls76.power_state.pwrStateResidencyTicks::UNDEFINED   2147483750                       # Cumulative time (in ticks) in various power states (Tick)
system.mem_ctrls77.power_state.pwrStateResidencyTicks::UNDEFINED   2147483750                       # Cumulative time (in ticks) in various power states (Tick)
system.mem_ctrls78.power_state.pwrStateResidencyTicks::UNDEFINED   2147483750                       # Cumulative time (in ticks) in various power states (Tick)
system.mem_ctrls79.power_state.pwrStateResidencyTicks::UNDEFINED   2147483750                       # Cumulative time (in ticks) in various power states (Tick)
system.mem_ctrls8.power_state.pwrStateResidencyTicks::UNDEFINED   2147483750                       # Cumulative time (in ticks) in various power states (Tick)
system.mem_ctrls80.power_state.pwrStateResidencyTicks::UNDEFINED   2147483750                       # Cumulative time (in ticks) in various power states (Tick)
system.mem_ctrls81.power_state.pwrStateResidencyTicks::UNDEFINED   2147483750                       # Cumulative time (in ticks) in various power states (Tick)
system.mem_ctrls82.power_state.pwrStateResidencyTicks::UNDEFINED   2147483750                       # Cumulative time (in ticks) in various power states (Tick)
system.mem_ctrls83.power_state.pwrStateResidencyTicks::UNDEFINED   2147483750                       # Cumulative time (in ticks) in various power states (Tick)
system.mem_ctrls84.power_state.pwrStateResidencyTicks::UNDEFINED   2147483750                       # Cumulative time (in ticks) in various power states (Tick)
system.mem_ctrls85.power_state.pwrStateResidencyTicks::UNDEFINED   2147483750                       # Cumulative time (in ticks) in various power states (Tick)
system.mem_ctrls86.power_state.pwrStateResidencyTicks::UNDEFINED   2147483750                       # Cumulative time (in ticks) in various power states (Tick)
system.mem_ctrls87.power_state.pwrStateResidencyTicks::UNDEFINED   2147483750                       # Cumulative time (in ticks) in various power states (Tick)
system.mem_ctrls88.power_state.pwrStateResidencyTicks::UNDEFINED   2147483750                       # Cumulative time (in ticks) in various power states (Tick)
system.mem_ctrls89.power_state.pwrStateResidencyTicks::UNDEFINED   2147483750                       # Cumulative time (in ticks) in various power states (Tick)
system.mem_ctrls9.power_state.pwrStateResidencyTicks::UNDEFINED   2147483750                       # Cumulative time (in ticks) in various power states (Tick)
system.mem_ctrls90.power_state.pwrStateResidencyTicks::UNDEFINED   2147483750                       # Cumulative time (in ticks) in various power states (Tick)
system.mem_ctrls91.power_state.pwrStateResidencyTicks::UNDEFINED   2147483750                       # Cumulative time (in ticks) in various power states (Tick)
system.mem_ctrls92.power_state.pwrStateResidencyTicks::UNDEFINED   2147483750                       # Cumulative time (in ticks) in various power states (Tick)
system.mem_ctrls93.power_state.pwrStateResidencyTicks::UNDEFINED   2147483750                       # Cumulative time (in ticks) in various power states (Tick)
system.mem_ctrls94.power_state.pwrStateResidencyTicks::UNDEFINED   2147483750                       # Cumulative time (in ticks) in various power states (Tick)
system.mem_ctrls95.power_state.pwrStateResidencyTicks::UNDEFINED   2147483750                       # Cumulative time (in ticks) in various power states (Tick)
system.mem_ctrls96.power_state.pwrStateResidencyTicks::UNDEFINED   2147483750                       # Cumulative time (in ticks) in various power states (Tick)
system.mem_ctrls97.power_state.pwrStateResidencyTicks::UNDEFINED   2147483750                       # Cumulative time (in ticks) in various power states (Tick)
system.mem_ctrls98.power_state.pwrStateResidencyTicks::UNDEFINED   2147483750                       # Cumulative time (in ticks) in various power states (Tick)
system.mem_ctrls99.power_state.pwrStateResidencyTicks::UNDEFINED   2147483750                       # Cumulative time (in ticks) in various power states (Tick)
system.ruby.m_outstandReqHistSeqr::bucket_size            1                       (Unspecified)
system.ruby.m_outstandReqHistSeqr::max_bucket            9                       (Unspecified)
system.ruby.m_outstandReqHistSeqr::samples     41186413                       (Unspecified)
system.ruby.m_outstandReqHistSeqr::mean             1                       (Unspecified)
system.ruby.m_outstandReqHistSeqr::gmean            1                       (Unspecified)
system.ruby.m_outstandReqHistSeqr        |           0      0.00%      0.00% |    41186413    100.00%    100.00% |           0      0.00%    100.00% |           0      0.00%    100.00% |           0      0.00%    100.00% |           0      0.00%    100.00% |           0      0.00%    100.00% |           0      0.00%    100.00% |           0      0.00%    100.00% |           0      0.00%    100.00% (Unspecified)
system.ruby.m_outstandReqHistSeqr::total     41186413                       (Unspecified)
system.ruby.m_latencyHistSeqr::bucket_size            1                       (Unspecified)
system.ruby.m_latencyHistSeqr::max_bucket            9                       (Unspecified)
system.ruby.m_latencyHistSeqr::samples       41186408                       (Unspecified)
system.ruby.m_latencyHistSeqr::mean                 1                       (Unspecified)
system.ruby.m_latencyHistSeqr::gmean                1                       (Unspecified)
system.ruby.m_latencyHistSeqr            |           0      0.00%      0.00% |    41186408    100.00%    100.00% |           0      0.00%    100.00% |           0      0.00%    100.00% |           0      0.00%    100.00% |           0      0.00%    100.00% |           0      0.00%    100.00% |           0      0.00%    100.00% |           0      0.00%    100.00% |           0      0.00%    100.00% (Unspecified)
system.ruby.m_latencyHistSeqr::total         41186408                       (Unspecified)
system.ruby.m_hitLatencyHistSeqr::bucket_size            1                       (Unspecified)
system.ruby.m_hitLatencyHistSeqr::max_bucket            9                       (Unspecified)
system.ruby.m_hitLatencyHistSeqr::samples     41186408                       (Unspecified)
system.ruby.m_hitLatencyHistSeqr::mean              1                       (Unspecified)
system.ruby.m_hitLatencyHistSeqr::gmean             1                       (Unspecified)
system.ruby.m_hitLatencyHistSeqr         |           0      0.00%      0.00% |    41186408    100.00%    100.00% |           0      0.00%    100.00% |           0      0.00%    100.00% |           0      0.00%    100.00% |           0      0.00%    100.00% |           0      0.00%    100.00% |           0      0.00%    100.00% |           0      0.00%    100.00% |           0      0.00%    100.00% (Unspecified)
system.ruby.m_hitLatencyHistSeqr::total      41186408                       (Unspecified)
system.ruby.Directory_Controller.Receive_Request |      127901      0.62%      0.62% |      128588      0.62%      1.25% |      128670      0.62%      1.87% |      128556      0.62%      2.49% |      129275      0.63%      3.12% |      128580      0.62%      3.75% |      128734      0.63%      4.37% |      128851      0.63%      5.00% |      129253      0.63%      5.62% |      128454      0.62%      6.25% |      128713      0.62%      6.87% |      128590      0.62%      7.50% |      128819      0.63%      8.12% |      128637      0.62%      8.75% |      128198      0.62%      9.37% |      128244      0.62%      9.99% |      128688      0.62%     10.62% |      128980      0.63%     11.24% |      128680      0.62%     11.87% |      128932      0.63%     12.49% |      129373      0.63%     13.12% |      129046      0.63%     13.75% |      128866      0.63%     14.38% |      128280      0.62%     15.00% |      128328      0.62%     15.62% |      129306      0.63%     16.25% |      128265      0.62%     16.87% |      129254      0.63%     17.50% |      128811      0.63%     18.13% |      129587      0.63%     18.75% |      128639      0.62%     19.38% |      128815      0.63%     20.00% |      129301      0.63%     20.63% |      128747      0.63%     21.26% |      128631      0.62%     21.88% |      128753      0.63%     22.51% |      128815      0.63%     23.13% |      128578      0.62%     23.76% |      128903      0.63%     24.38% |      128556      0.62%     25.01% |      128468      0.62%     25.63% |      128635      0.62%     26.26% |      128353      0.62%     26.88% |      129036      0.63%     27.51% |      128309      0.62%     28.13% |      128942      0.63%     28.75% |      128649      0.62%     29.38% |      128402      0.62%     30.00% |      128606      0.62%     30.63% |      128958      0.63%     31.25% |      129154      0.63%     31.88% |      128653      0.62%     32.50% |      128525      0.62%     33.13% |      128650      0.62%     33.75% |      128153      0.62%     34.38% |      128797      0.63%     35.00% |      128310      0.62%     35.62% |      128737      0.63%     36.25% |      128806      0.63%     36.87% |      128981      0.63%     37.50% |      129042      0.63%     38.13% |      127978      0.62%     38.75% |      129047      0.63%     39.38% |      128827      0.63%     40.00% |      128359      0.62%     40.62% |      128684      0.62%     41.25% |      129056      0.63%     41.88% |      128491      0.62%     42.50% |      128385      0.62%     43.12% |      128550      0.62%     43.75% |      128518      0.62%     44.37% |      128942      0.63%     45.00% |      128372      0.62%     45.62% |      128650      0.62%     46.25% |      128337      0.62%     46.87% |      129144      0.63%     47.50% |      129181      0.63%     48.12% |      128102      0.62%     48.74% |      128593      0.62%     49.37% |      128608      0.62%     49.99% |      128586      0.62%     50.62% |      128238      0.62%     51.24% |      128292      0.62%     51.86% |      128952      0.63%     52.49% |      128328      0.62%     53.11% |      129005      0.63%     53.74% |      128707      0.62%     54.36% |      129161      0.63%     54.99% |      129070      0.63%     55.62% |      128296      0.62%     56.24% |      129186      0.63%     56.87% |      129287      0.63%     57.50% |      128572      0.62%     58.12% |      129091      0.63%     58.75% |      129475      0.63%     59.38% |      128805      0.63%     60.00% |      129115      0.63%     60.63% |      128598      0.62%     61.25% |      128580      0.62%     61.88% |      128786      0.63%     62.50% |      129472      0.63%     63.13% |      128263      0.62%     63.75% |      128687      0.62%     64.38% |      128380      0.62%     65.00% |      128366      0.62%     65.62% |      128741      0.63%     66.25% |      129010      0.63%     66.88% |      128712      0.62%     67.50% |      128721      0.63%     68.13% |      128517      0.62%     68.75% |      128643      0.62%     69.37% |      128971      0.63%     70.00% |      129234      0.63%     70.63% |      128521      0.62%     71.25% |      129031      0.63%     71.88% |      128676      0.62%     72.50% |      128950      0.63%     73.13% |      128097      0.62%     73.75% |      129121      0.63%     74.38% |      128451      0.62%     75.00% |      127805      0.62%     75.62% |      128869      0.63%     76.25% |      128456      0.62%     76.87% |      129096      0.63%     77.50% |      128982      0.63%     78.13% |      128634      0.62%     78.75% |      128491      0.62%     79.37% |      128655      0.62%     80.00% |      128678      0.62%     80.62% |      128729      0.63%     81.25% |      128368      0.62%     81.87% |      128753      0.63%     82.50% |      128619      0.62%     83.12% |      129136      0.63%     83.75% |      128810      0.63%     84.37% |      128731      0.63%     85.00% |      128159      0.62%     85.62% |      128430      0.62%     86.25% |      128564      0.62%     86.87% |      129068      0.63%     87.50% |      128689      0.62%     88.12% |      128565      0.62%     88.75% |      128481      0.62%     89.37% |      128819      0.63%     89.99% |      128164      0.62%     90.62% |      128635      0.62%     91.24% |      128844      0.63%     91.87% |      128634      0.62%     92.49% |      128490      0.62%     93.12% |      128982      0.63%     93.74% |      128753      0.63%     94.37% |      128689      0.62%     94.99% |      128832      0.63%     95.62% |      128792      0.63%     96.24% |      128982      0.63%     96.87% |      129037      0.63%     97.50% |      129079      0.63%     98.12% |      128687      0.62%     98.75% |      129291      0.63%     99.37% |      128728      0.63%    100.00% (Unspecified)
system.ruby.Directory_Controller.Receive_Request::total     20595087                       (Unspecified)
system.ruby.Directory_Controller.Receive_Response |      101034      0.63%      0.63% |      100755      0.62%      1.25% |      101132      0.63%      1.88% |      100314      0.62%      2.50% |      100300      0.62%      3.12% |      100531      0.62%      3.74% |      100568      0.62%      4.37% |      101015      0.63%      4.99% |      100946      0.63%      5.62% |      100689      0.62%      6.24% |      100972      0.63%      6.87% |      101220      0.63%      7.50% |      100757      0.62%      8.12% |      100840      0.63%      8.75% |      100639      0.62%      9.37% |      100293      0.62%      9.99% |      100413      0.62%     10.61% |      100303      0.62%     11.24% |      100524      0.62%     11.86% |      100134      0.62%     12.48% |      100605      0.62%     13.10% |      101354      0.63%     13.73% |      100675      0.62%     14.36% |      100751      0.62%     14.98% |      100614      0.62%     15.60% |      100368      0.62%     16.23% |      100992      0.63%     16.85% |      100852      0.63%     17.48% |      100112      0.62%     18.10% |      100751      0.62%     18.72% |      100752      0.62%     19.35% |      100770      0.62%     19.97% |      100412      0.62%     20.59% |      101393      0.63%     21.22% |      101273      0.63%     21.85% |      100560      0.62%     22.47% |      100899      0.63%     23.10% |      101074      0.63%     23.73% |      100432      0.62%     24.35% |      100990      0.63%     24.97% |      101099      0.63%     25.60% |      101123      0.63%     26.23% |      100724      0.62%     26.85% |      100573      0.62%     27.47% |      100895      0.63%     28.10% |      101078      0.63%     28.73% |      100362      0.62%     29.35% |      101303      0.63%     29.98% |      100948      0.63%     30.60% |      100345      0.62%     31.22% |      101059      0.63%     31.85% |      100827      0.62%     32.48% |      100639      0.62%     33.10% |      101202      0.63%     33.73% |      101045      0.63%     34.35% |      100943      0.63%     34.98% |      100604      0.62%     35.60% |      100555      0.62%     36.23% |      101227      0.63%     36.85% |      101112      0.63%     37.48% |      100681      0.62%     38.10% |      100986      0.63%     38.73% |      100916      0.63%     39.36% |      101254      0.63%     39.98% |      100486      0.62%     40.61% |      100957      0.63%     41.23% |      101391      0.63%     41.86% |      100452      0.62%     42.48% |      100614      0.62%     43.11% |      100775      0.62%     43.73% |      100441      0.62%     44.35% |      100931      0.63%     44.98% |      100553      0.62%     45.60% |      100040      0.62%     46.22% |      100942      0.63%     46.85% |      101038      0.63%     47.47% |      100367      0.62%     48.10% |      100977      0.63%     48.72% |      100637      0.62%     49.35% |      100799      0.62%     49.97% |      101172      0.63%     50.60% |      101488      0.63%     51.23% |      100337      0.62%     51.85% |      100834      0.63%     52.47% |      100962      0.63%     53.10% |      100834      0.63%     53.73% |      101042      0.63%     54.35% |      101142      0.63%     54.98% |      100696      0.62%     55.60% |      100619      0.62%     56.23% |      100091      0.62%     56.85% |      100585      0.62%     57.47% |      101241      0.63%     58.10% |      101457      0.63%     58.73% |      100758      0.62%     59.35% |      100855      0.63%     59.98% |      100879      0.63%     60.60% |      101023      0.63%     61.23% |      100895      0.63%     61.85% |      101157      0.63%     62.48% |      101230      0.63%     63.11% |      101102      0.63%     63.73% |      101062      0.63%     64.36% |      100620      0.62%     64.98% |      100568      0.62%     65.61% |      101422      0.63%     66.24% |      100754      0.62%     66.86% |      100753      0.62%     67.49% |      100607      0.62%     68.11% |      100544      0.62%     68.73% |      101009      0.63%     69.36% |      100840      0.63%     69.98% |      101556      0.63%     70.61% |      101333      0.63%     71.24% |      101229      0.63%     71.87% |      101200      0.63%     72.50% |      101023      0.63%     73.12% |      101143      0.63%     73.75% |      100947      0.63%     74.37% |      100599      0.62%     75.00% |      101185      0.63%     75.63% |      100818      0.62%     76.25% |      100264      0.62%     76.87% |      100849      0.63%     77.50% |      100508      0.62%     78.12% |      100693      0.62%     78.74% |      100597      0.62%     79.37% |      101121      0.63%     79.99% |      100633      0.62%     80.62% |      100520      0.62%     81.24% |      101043      0.63%     81.87% |      100809      0.62%     82.49% |      100509      0.62%     83.12% |      100894      0.63%     83.74% |      100796      0.62%     84.37% |      100883      0.63%     84.99% |      101441      0.63%     85.62% |      100819      0.62%     86.24% |      100785      0.62%     86.87% |      101221      0.63%     87.50% |      100663      0.62%     88.12% |      100359      0.62%     88.74% |      101086      0.63%     89.37% |      101253      0.63%     90.00% |      100739      0.62%     90.62% |      101231      0.63%     91.25% |      100638      0.62%     91.87% |      101238      0.63%     92.50% |      100326      0.62%     93.12% |      100955      0.63%     93.75% |      100664      0.62%     94.37% |      100707      0.62%     95.00% |      100780      0.62%     95.62% |      100665      0.62%     96.24% |      100999      0.63%     96.87% |      101044      0.63%     97.50% |      100807      0.62%     98.12% |      100662      0.62%     98.75% |      101617      0.63%     99.38% |      100715      0.62%    100.00% (Unspecified)
system.ruby.Directory_Controller.Receive_Response::total     16133052                       (Unspecified)
system.ruby.Directory_Controller.I.Receive_Request |      127901      0.62%      0.62% |      128588      0.62%      1.25% |      128670      0.62%      1.87% |      128556      0.62%      2.49% |      129275      0.63%      3.12% |      128580      0.62%      3.75% |      128734      0.63%      4.37% |      128851      0.63%      5.00% |      129253      0.63%      5.62% |      128454      0.62%      6.25% |      128713      0.62%      6.87% |      128590      0.62%      7.50% |      128819      0.63%      8.12% |      128637      0.62%      8.75% |      128198      0.62%      9.37% |      128244      0.62%      9.99% |      128688      0.62%     10.62% |      128980      0.63%     11.24% |      128680      0.62%     11.87% |      128932      0.63%     12.49% |      129373      0.63%     13.12% |      129046      0.63%     13.75% |      128866      0.63%     14.38% |      128280      0.62%     15.00% |      128328      0.62%     15.62% |      129306      0.63%     16.25% |      128265      0.62%     16.87% |      129254      0.63%     17.50% |      128811      0.63%     18.13% |      129587      0.63%     18.75% |      128639      0.62%     19.38% |      128815      0.63%     20.00% |      129301      0.63%     20.63% |      128747      0.63%     21.26% |      128631      0.62%     21.88% |      128753      0.63%     22.51% |      128815      0.63%     23.13% |      128578      0.62%     23.76% |      128903      0.63%     24.38% |      128556      0.62%     25.01% |      128468      0.62%     25.63% |      128635      0.62%     26.26% |      128353      0.62%     26.88% |      129036      0.63%     27.51% |      128309      0.62%     28.13% |      128942      0.63%     28.75% |      128649      0.62%     29.38% |      128402      0.62%     30.00% |      128606      0.62%     30.63% |      128958      0.63%     31.25% |      129154      0.63%     31.88% |      128653      0.62%     32.50% |      128525      0.62%     33.13% |      128650      0.62%     33.75% |      128153      0.62%     34.38% |      128797      0.63%     35.00% |      128310      0.62%     35.62% |      128737      0.63%     36.25% |      128806      0.63%     36.87% |      128981      0.63%     37.50% |      129042      0.63%     38.13% |      127978      0.62%     38.75% |      129047      0.63%     39.38% |      128827      0.63%     40.00% |      128359      0.62%     40.62% |      128684      0.62%     41.25% |      129056      0.63%     41.88% |      128491      0.62%     42.50% |      128385      0.62%     43.12% |      128550      0.62%     43.75% |      128518      0.62%     44.37% |      128942      0.63%     45.00% |      128372      0.62%     45.62% |      128650      0.62%     46.25% |      128337      0.62%     46.87% |      129144      0.63%     47.50% |      129181      0.63%     48.12% |      128102      0.62%     48.74% |      128593      0.62%     49.37% |      128608      0.62%     49.99% |      128586      0.62%     50.62% |      128238      0.62%     51.24% |      128292      0.62%     51.86% |      128952      0.63%     52.49% |      128328      0.62%     53.11% |      129005      0.63%     53.74% |      128707      0.62%     54.36% |      129161      0.63%     54.99% |      129070      0.63%     55.62% |      128296      0.62%     56.24% |      129186      0.63%     56.87% |      129287      0.63%     57.50% |      128572      0.62%     58.12% |      129091      0.63%     58.75% |      129475      0.63%     59.38% |      128805      0.63%     60.00% |      129115      0.63%     60.63% |      128598      0.62%     61.25% |      128580      0.62%     61.88% |      128786      0.63%     62.50% |      129472      0.63%     63.13% |      128263      0.62%     63.75% |      128687      0.62%     64.38% |      128380      0.62%     65.00% |      128366      0.62%     65.62% |      128741      0.63%     66.25% |      129010      0.63%     66.88% |      128712      0.62%     67.50% |      128721      0.63%     68.13% |      128517      0.62%     68.75% |      128643      0.62%     69.37% |      128971      0.63%     70.00% |      129234      0.63%     70.63% |      128521      0.62%     71.25% |      129031      0.63%     71.88% |      128676      0.62%     72.50% |      128950      0.63%     73.13% |      128097      0.62%     73.75% |      129121      0.63%     74.38% |      128451      0.62%     75.00% |      127805      0.62%     75.62% |      128869      0.63%     76.25% |      128456      0.62%     76.87% |      129096      0.63%     77.50% |      128982      0.63%     78.13% |      128634      0.62%     78.75% |      128491      0.62%     79.37% |      128655      0.62%     80.00% |      128678      0.62%     80.62% |      128729      0.63%     81.25% |      128368      0.62%     81.87% |      128753      0.63%     82.50% |      128619      0.62%     83.12% |      129136      0.63%     83.75% |      128810      0.63%     84.37% |      128731      0.63%     85.00% |      128159      0.62%     85.62% |      128430      0.62%     86.25% |      128564      0.62%     86.87% |      129068      0.63%     87.50% |      128689      0.62%     88.12% |      128565      0.62%     88.75% |      128481      0.62%     89.37% |      128819      0.63%     89.99% |      128164      0.62%     90.62% |      128635      0.62%     91.24% |      128844      0.63%     91.87% |      128634      0.62%     92.49% |      128490      0.62%     93.12% |      128982      0.63%     93.74% |      128753      0.63%     94.37% |      128689      0.62%     94.99% |      128832      0.63%     95.62% |      128792      0.63%     96.24% |      128982      0.63%     96.87% |      129037      0.63%     97.50% |      129079      0.63%     98.12% |      128687      0.62%     98.75% |      129291      0.63%     99.37% |      128728      0.63%    100.00% (Unspecified)
system.ruby.Directory_Controller.I.Receive_Request::total     20595087                       (Unspecified)
system.ruby.Directory_Controller.I.Receive_Response |      101034      0.63%      0.63% |      100755      0.62%      1.25% |      101132      0.63%      1.88% |      100314      0.62%      2.50% |      100300      0.62%      3.12% |      100531      0.62%      3.74% |      100568      0.62%      4.37% |      101015      0.63%      4.99% |      100946      0.63%      5.62% |      100689      0.62%      6.24% |      100972      0.63%      6.87% |      101220      0.63%      7.50% |      100757      0.62%      8.12% |      100840      0.63%      8.75% |      100639      0.62%      9.37% |      100293      0.62%      9.99% |      100413      0.62%     10.61% |      100303      0.62%     11.24% |      100524      0.62%     11.86% |      100134      0.62%     12.48% |      100605      0.62%     13.10% |      101354      0.63%     13.73% |      100675      0.62%     14.36% |      100751      0.62%     14.98% |      100614      0.62%     15.60% |      100368      0.62%     16.23% |      100992      0.63%     16.85% |      100852      0.63%     17.48% |      100112      0.62%     18.10% |      100751      0.62%     18.72% |      100752      0.62%     19.35% |      100770      0.62%     19.97% |      100412      0.62%     20.59% |      101393      0.63%     21.22% |      101273      0.63%     21.85% |      100560      0.62%     22.47% |      100899      0.63%     23.10% |      101074      0.63%     23.73% |      100432      0.62%     24.35% |      100990      0.63%     24.97% |      101099      0.63%     25.60% |      101123      0.63%     26.23% |      100724      0.62%     26.85% |      100573      0.62%     27.47% |      100895      0.63%     28.10% |      101078      0.63%     28.73% |      100362      0.62%     29.35% |      101303      0.63%     29.98% |      100948      0.63%     30.60% |      100345      0.62%     31.22% |      101059      0.63%     31.85% |      100827      0.62%     32.48% |      100639      0.62%     33.10% |      101202      0.63%     33.73% |      101045      0.63%     34.35% |      100943      0.63%     34.98% |      100604      0.62%     35.60% |      100555      0.62%     36.23% |      101227      0.63%     36.85% |      101112      0.63%     37.48% |      100681      0.62%     38.10% |      100986      0.63%     38.73% |      100916      0.63%     39.36% |      101254      0.63%     39.98% |      100486      0.62%     40.61% |      100957      0.63%     41.23% |      101391      0.63%     41.86% |      100452      0.62%     42.48% |      100614      0.62%     43.11% |      100775      0.62%     43.73% |      100441      0.62%     44.35% |      100931      0.63%     44.98% |      100553      0.62%     45.60% |      100040      0.62%     46.22% |      100942      0.63%     46.85% |      101038      0.63%     47.47% |      100367      0.62%     48.10% |      100977      0.63%     48.72% |      100637      0.62%     49.35% |      100799      0.62%     49.97% |      101172      0.63%     50.60% |      101488      0.63%     51.23% |      100337      0.62%     51.85% |      100834      0.63%     52.47% |      100962      0.63%     53.10% |      100834      0.63%     53.73% |      101042      0.63%     54.35% |      101142      0.63%     54.98% |      100696      0.62%     55.60% |      100619      0.62%     56.23% |      100091      0.62%     56.85% |      100585      0.62%     57.47% |      101241      0.63%     58.10% |      101457      0.63%     58.73% |      100758      0.62%     59.35% |      100855      0.63%     59.98% |      100879      0.63%     60.60% |      101023      0.63%     61.23% |      100895      0.63%     61.85% |      101157      0.63%     62.48% |      101230      0.63%     63.11% |      101102      0.63%     63.73% |      101062      0.63%     64.36% |      100620      0.62%     64.98% |      100568      0.62%     65.61% |      101422      0.63%     66.24% |      100754      0.62%     66.86% |      100753      0.62%     67.49% |      100607      0.62%     68.11% |      100544      0.62%     68.73% |      101009      0.63%     69.36% |      100840      0.63%     69.98% |      101556      0.63%     70.61% |      101333      0.63%     71.24% |      101229      0.63%     71.87% |      101200      0.63%     72.50% |      101023      0.63%     73.12% |      101143      0.63%     73.75% |      100947      0.63%     74.37% |      100599      0.62%     75.00% |      101185      0.63%     75.63% |      100818      0.62%     76.25% |      100264      0.62%     76.87% |      100849      0.63%     77.50% |      100508      0.62%     78.12% |      100693      0.62%     78.74% |      100597      0.62%     79.37% |      101121      0.63%     79.99% |      100633      0.62%     80.62% |      100520      0.62%     81.24% |      101043      0.63%     81.87% |      100809      0.62%     82.49% |      100509      0.62%     83.12% |      100894      0.63%     83.74% |      100796      0.62%     84.37% |      100883      0.63%     84.99% |      101441      0.63%     85.62% |      100819      0.62%     86.24% |      100785      0.62%     86.87% |      101221      0.63%     87.50% |      100663      0.62%     88.12% |      100359      0.62%     88.74% |      101086      0.63%     89.37% |      101253      0.63%     90.00% |      100739      0.62%     90.62% |      101231      0.63%     91.25% |      100638      0.62%     91.87% |      101238      0.63%     92.50% |      100326      0.62%     93.12% |      100955      0.63%     93.75% |      100664      0.62%     94.37% |      100707      0.62%     95.00% |      100780      0.62%     95.62% |      100665      0.62%     96.24% |      100999      0.63%     96.87% |      101044      0.63%     97.50% |      100807      0.62%     98.12% |      100662      0.62%     98.75% |      101617      0.63%     99.38% |      100715      0.62%    100.00% (Unspecified)
system.ruby.Directory_Controller.I.Receive_Response::total     16133052                       (Unspecified)
system.ruby.L1Cache_Controller.Request   |      514306      2.50%      2.50% |      514816      2.50%      5.00% |      515535      2.50%      7.50% |      515878      2.50%     10.00% |      514407      2.50%     12.50% |      514646      2.50%     15.00% |      514618      2.50%     17.50% |      515071      2.50%     20.00% |      514926      2.50%     22.50% |      515490      2.50%     25.00% |      514494      2.50%     27.50% |      515028      2.50%     30.00% |      514641      2.50%     32.50% |      515086      2.50%     35.00% |      514024      2.50%     37.50% |      515760      2.50%     40.00% |      513924      2.50%     42.50% |      515831      2.50%     45.00% |      515795      2.50%     47.51% |      514561      2.50%     50.01% |      514960      2.50%     52.51% |      514567      2.50%     55.01% |      514219      2.50%     57.50% |      515558      2.50%     60.01% |      515122      2.50%     62.51% |      515019      2.50%     65.01% |      514387      2.50%     67.50% |      513665      2.49%     70.00% |      513968      2.50%     72.49% |      515945      2.51%     75.00% |      514479      2.50%     77.50% |      516499      2.51%     80.01% |      513918      2.50%     82.50% |      514115      2.50%     85.00% |      515029      2.50%     87.50% |      515600      2.50%     90.00% |      514671      2.50%     92.50% |      516140      2.51%     95.01% |      513738      2.49%     97.50% |      514712      2.50%    100.00% (Unspecified)
system.ruby.L1Cache_Controller.Request::total     20595148                       (Unspecified)
system.ruby.L1Cache_Controller.Response  |      514798      2.50%      2.50% |      515399      2.50%      5.00% |      513570      2.49%      7.50% |      514660      2.50%     10.00% |      515310      2.50%     12.50% |      516002      2.51%     15.01% |      514918      2.50%     17.51% |      514314      2.50%     20.00% |      516161      2.51%     22.51% |      514417      2.50%     25.01% |      514733      2.50%     27.51% |      513384      2.49%     30.00% |      515417      2.50%     32.50% |      513307      2.49%     35.00% |      515129      2.50%     37.50% |      514810      2.50%     40.00% |      515336      2.50%     42.50% |      513942      2.50%     45.00% |      515650      2.50%     47.50% |      513988      2.50%     50.00% |      514599      2.50%     52.50% |      514007      2.50%     54.99% |      514262      2.50%     57.49% |      514952      2.50%     59.99% |      515799      2.50%     62.50% |      516005      2.51%     65.00% |      513677      2.49%     67.50% |      515010      2.50%     70.00% |      514437      2.50%     72.50% |      515498      2.50%     75.00% |      514578      2.50%     77.50% |      514252      2.50%     80.00% |      515505      2.50%     82.50% |      514540      2.50%     85.00% |      516351      2.51%     87.51% |      515170      2.50%     90.01% |      513825      2.50%     92.50% |      513055      2.49%     95.00% |      515152      2.50%     97.50% |      515341      2.50%    100.00% (Unspecified)
system.ruby.L1Cache_Controller.Response::total     20591260                       (Unspecified)
system.ruby.L1Cache_Controller.I.Request |      514306      2.50%      2.50% |      514816      2.50%      5.00% |      515535      2.50%      7.50% |      515878      2.50%     10.00% |      514407      2.50%     12.50% |      514646      2.50%     15.00% |      514618      2.50%     17.50% |      515071      2.50%     20.00% |      514926      2.50%     22.50% |      515490      2.50%     25.00% |      514494      2.50%     27.50% |      515028      2.50%     30.00% |      514641      2.50%     32.50% |      515086      2.50%     35.00% |      514024      2.50%     37.50% |      515760      2.50%     40.00% |      513924      2.50%     42.50% |      515831      2.50%     45.00% |      515795      2.50%     47.51% |      514561      2.50%     50.01% |      514960      2.50%     52.51% |      514567      2.50%     55.01% |      514219      2.50%     57.50% |      515558      2.50%     60.01% |      515122      2.50%     62.51% |      515019      2.50%     65.01% |      514387      2.50%     67.50% |      513665      2.49%     70.00% |      513968      2.50%     72.49% |      515945      2.51%     75.00% |      514479      2.50%     77.50% |      516499      2.51%     80.01% |      513918      2.50%     82.50% |      514115      2.50%     85.00% |      515029      2.50%     87.50% |      515600      2.50%     90.00% |      514671      2.50%     92.50% |      516140      2.51%     95.01% |      513738      2.49%     97.50% |      514712      2.50%    100.00% (Unspecified)
system.ruby.L1Cache_Controller.I.Request::total     20595148                       (Unspecified)
system.ruby.L1Cache_Controller.I.Response |      514798      2.50%      2.50% |      515399      2.50%      5.00% |      513570      2.49%      7.50% |      514660      2.50%     10.00% |      515310      2.50%     12.50% |      516002      2.51%     15.01% |      514918      2.50%     17.51% |      514314      2.50%     20.00% |      516161      2.51%     22.51% |      514417      2.50%     25.01% |      514733      2.50%     27.51% |      513384      2.49%     30.00% |      515417      2.50%     32.50% |      513307      2.49%     35.00% |      515129      2.50%     37.50% |      514810      2.50%     40.00% |      515336      2.50%     42.50% |      513942      2.50%     45.00% |      515650      2.50%     47.50% |      513988      2.50%     50.00% |      514599      2.50%     52.50% |      514007      2.50%     54.99% |      514262      2.50%     57.49% |      514952      2.50%     59.99% |      515799      2.50%     62.50% |      516005      2.51%     65.00% |      513677      2.49%     67.50% |      515010      2.50%     70.00% |      514437      2.50%     72.50% |      515498      2.50%     75.00% |      514578      2.50%     77.50% |      514252      2.50%     80.00% |      515505      2.50%     82.50% |      514540      2.50%     85.00% |      516351      2.51%     87.51% |      515170      2.50%     90.01% |      513825      2.50%     92.50% |      513055      2.49%     95.00% |      515152      2.50%     97.50% |      515341      2.50%    100.00% (Unspecified)
system.ruby.L1Cache_Controller.I.Response::total     20591260                       (Unspecified)
system.ruby.RequestType.LD.latency_hist_seqr::bucket_size            1                       (Unspecified)
system.ruby.RequestType.LD.latency_hist_seqr::max_bucket            9                       (Unspecified)
system.ruby.RequestType.LD.latency_hist_seqr::samples     20595148                       (Unspecified)
system.ruby.RequestType.LD.latency_hist_seqr::mean            1                       (Unspecified)
system.ruby.RequestType.LD.latency_hist_seqr::gmean            1                       (Unspecified)
system.ruby.RequestType.LD.latency_hist_seqr |           0      0.00%      0.00% |    20595148    100.00%    100.00% |           0      0.00%    100.00% |           0      0.00%    100.00% |           0      0.00%    100.00% |           0      0.00%    100.00% |           0      0.00%    100.00% |           0      0.00%    100.00% |           0      0.00%    100.00% |           0      0.00%    100.00% (Unspecified)
system.ruby.RequestType.LD.latency_hist_seqr::total     20595148                       (Unspecified)
system.ruby.RequestType.LD.hit_latency_hist_seqr::bucket_size            1                       (Unspecified)
system.ruby.RequestType.LD.hit_latency_hist_seqr::max_bucket            9                       (Unspecified)
system.ruby.RequestType.LD.hit_latency_hist_seqr::samples     20595148                       (Unspecified)
system.ruby.RequestType.LD.hit_latency_hist_seqr::mean            1                       (Unspecified)
system.ruby.RequestType.LD.hit_latency_hist_seqr::gmean            1                       (Unspecified)
system.ruby.RequestType.LD.hit_latency_hist_seqr |           0      0.00%      0.00% |    20595148    100.00%    100.00% |           0      0.00%    100.00% |           0      0.00%    100.00% |           0      0.00%    100.00% |           0      0.00%    100.00% |           0      0.00%    100.00% |           0      0.00%    100.00% |           0      0.00%    100.00% |           0      0.00%    100.00% (Unspecified)
system.ruby.RequestType.LD.hit_latency_hist_seqr::total     20595148                       (Unspecified)
system.ruby.RequestType.ST.latency_hist_seqr::bucket_size            1                       (Unspecified)
system.ruby.RequestType.ST.latency_hist_seqr::max_bucket            9                       (Unspecified)
system.ruby.RequestType.ST.latency_hist_seqr::samples     20591260                       (Unspecified)
system.ruby.RequestType.ST.latency_hist_seqr::mean            1                       (Unspecified)
system.ruby.RequestType.ST.latency_hist_seqr::gmean            1                       (Unspecified)
system.ruby.RequestType.ST.latency_hist_seqr |           0      0.00%      0.00% |    20591260    100.00%    100.00% |           0      0.00%    100.00% |           0      0.00%    100.00% |           0      0.00%    100.00% |           0      0.00%    100.00% |           0      0.00%    100.00% |           0      0.00%    100.00% |           0      0.00%    100.00% |           0      0.00%    100.00% (Unspecified)
system.ruby.RequestType.ST.latency_hist_seqr::total     20591260                       (Unspecified)
system.ruby.RequestType.ST.hit_latency_hist_seqr::bucket_size            1                       (Unspecified)
system.ruby.RequestType.ST.hit_latency_hist_seqr::max_bucket            9                       (Unspecified)
system.ruby.RequestType.ST.hit_latency_hist_seqr::samples     20591260                       (Unspecified)
system.ruby.RequestType.ST.hit_latency_hist_seqr::mean            1                       (Unspecified)
system.ruby.RequestType.ST.hit_latency_hist_seqr::gmean            1                       (Unspecified)
system.ruby.RequestType.ST.hit_latency_hist_seqr |           0      0.00%      0.00% |    20591260    100.00%    100.00% |           0      0.00%    100.00% |           0      0.00%    100.00% |           0      0.00%    100.00% |           0      0.00%    100.00% |           0      0.00%    100.00% |           0      0.00%    100.00% |           0      0.00%    100.00% |           0      0.00%    100.00% (Unspecified)
system.ruby.RequestType.ST.hit_latency_hist_seqr::total     20591260                       (Unspecified)
system.ruby.clk_domain.clock                      250                       # Clock period in ticks (Tick)
system.ruby.dir_cntrl0.power_state.pwrStateResidencyTicks::UNDEFINED   2147483750                       # Cumulative time (in ticks) in various power states (Tick)
system.ruby.dir_cntrl0.requestToDir.m_msg_count       127901                       # Number of messages passed the buffer (Count)
system.ruby.dir_cntrl0.requestToDir.m_buf_msgs     0.014890                       # Average number of messages in buffer ((Count/Tick))
system.ruby.dir_cntrl0.responseToDir.m_msg_count       101034                       # Number of messages passed the buffer (Count)
system.ruby.dir_cntrl0.responseToDir.m_buf_msgs     0.011762                       # Average number of messages in buffer ((Count/Tick))
system.ruby.dir_cntrl1.power_state.pwrStateResidencyTicks::UNDEFINED   2147483750                       # Cumulative time (in ticks) in various power states (Tick)
system.ruby.dir_cntrl1.requestToDir.m_msg_count       128588                       # Number of messages passed the buffer (Count)
system.ruby.dir_cntrl1.requestToDir.m_buf_msgs     0.014970                       # Average number of messages in buffer ((Count/Tick))
system.ruby.dir_cntrl1.responseToDir.m_msg_count       100755                       # Number of messages passed the buffer (Count)
system.ruby.dir_cntrl1.responseToDir.m_buf_msgs     0.011729                       # Average number of messages in buffer ((Count/Tick))
system.ruby.dir_cntrl10.power_state.pwrStateResidencyTicks::UNDEFINED   2147483750                       # Cumulative time (in ticks) in various power states (Tick)
system.ruby.dir_cntrl10.requestToDir.m_msg_count       128713                       # Number of messages passed the buffer (Count)
system.ruby.dir_cntrl10.requestToDir.m_buf_msgs     0.014984                       # Average number of messages in buffer ((Count/Tick))
system.ruby.dir_cntrl10.responseToDir.m_msg_count       100972                       # Number of messages passed the buffer (Count)
system.ruby.dir_cntrl10.responseToDir.m_buf_msgs     0.011755                       # Average number of messages in buffer ((Count/Tick))
system.ruby.dir_cntrl100.power_state.pwrStateResidencyTicks::UNDEFINED   2147483750                       # Cumulative time (in ticks) in various power states (Tick)
system.ruby.dir_cntrl100.requestToDir.m_msg_count       129472                       # Number of messages passed the buffer (Count)
system.ruby.dir_cntrl100.requestToDir.m_buf_msgs     0.015073                       # Average number of messages in buffer ((Count/Tick))
system.ruby.dir_cntrl100.responseToDir.m_msg_count       101230                       # Number of messages passed the buffer (Count)
system.ruby.dir_cntrl100.responseToDir.m_buf_msgs     0.011785                       # Average number of messages in buffer ((Count/Tick))
system.ruby.dir_cntrl101.power_state.pwrStateResidencyTicks::UNDEFINED   2147483750                       # Cumulative time (in ticks) in various power states (Tick)
system.ruby.dir_cntrl101.requestToDir.m_msg_count       128263                       # Number of messages passed the buffer (Count)
system.ruby.dir_cntrl101.requestToDir.m_buf_msgs     0.014932                       # Average number of messages in buffer ((Count/Tick))
system.ruby.dir_cntrl101.responseToDir.m_msg_count       101102                       # Number of messages passed the buffer (Count)
system.ruby.dir_cntrl101.responseToDir.m_buf_msgs     0.011770                       # Average number of messages in buffer ((Count/Tick))
system.ruby.dir_cntrl102.power_state.pwrStateResidencyTicks::UNDEFINED   2147483750                       # Cumulative time (in ticks) in various power states (Tick)
system.ruby.dir_cntrl102.requestToDir.m_msg_count       128687                       # Number of messages passed the buffer (Count)
system.ruby.dir_cntrl102.requestToDir.m_buf_msgs     0.014981                       # Average number of messages in buffer ((Count/Tick))
system.ruby.dir_cntrl102.responseToDir.m_msg_count       101062                       # Number of messages passed the buffer (Count)
system.ruby.dir_cntrl102.responseToDir.m_buf_msgs     0.011765                       # Average number of messages in buffer ((Count/Tick))
system.ruby.dir_cntrl103.power_state.pwrStateResidencyTicks::UNDEFINED   2147483750                       # Cumulative time (in ticks) in various power states (Tick)
system.ruby.dir_cntrl103.requestToDir.m_msg_count       128380                       # Number of messages passed the buffer (Count)
system.ruby.dir_cntrl103.requestToDir.m_buf_msgs     0.014945                       # Average number of messages in buffer ((Count/Tick))
system.ruby.dir_cntrl103.responseToDir.m_msg_count       100620                       # Number of messages passed the buffer (Count)
system.ruby.dir_cntrl103.responseToDir.m_buf_msgs     0.011714                       # Average number of messages in buffer ((Count/Tick))
system.ruby.dir_cntrl104.power_state.pwrStateResidencyTicks::UNDEFINED   2147483750                       # Cumulative time (in ticks) in various power states (Tick)
system.ruby.dir_cntrl104.requestToDir.m_msg_count       128366                       # Number of messages passed the buffer (Count)
system.ruby.dir_cntrl104.requestToDir.m_buf_msgs     0.014944                       # Average number of messages in buffer ((Count/Tick))
system.ruby.dir_cntrl104.responseToDir.m_msg_count       100568                       # Number of messages passed the buffer (Count)
system.ruby.dir_cntrl104.responseToDir.m_buf_msgs     0.011708                       # Average number of messages in buffer ((Count/Tick))
system.ruby.dir_cntrl105.power_state.pwrStateResidencyTicks::UNDEFINED   2147483750                       # Cumulative time (in ticks) in various power states (Tick)
system.ruby.dir_cntrl105.requestToDir.m_msg_count       128741                       # Number of messages passed the buffer (Count)
system.ruby.dir_cntrl105.requestToDir.m_buf_msgs     0.014987                       # Average number of messages in buffer ((Count/Tick))
system.ruby.dir_cntrl105.responseToDir.m_msg_count       101422                       # Number of messages passed the buffer (Count)
system.ruby.dir_cntrl105.responseToDir.m_buf_msgs     0.011807                       # Average number of messages in buffer ((Count/Tick))
system.ruby.dir_cntrl106.power_state.pwrStateResidencyTicks::UNDEFINED   2147483750                       # Cumulative time (in ticks) in various power states (Tick)
system.ruby.dir_cntrl106.requestToDir.m_msg_count       129010                       # Number of messages passed the buffer (Count)
system.ruby.dir_cntrl106.requestToDir.m_buf_msgs     0.015019                       # Average number of messages in buffer ((Count/Tick))
system.ruby.dir_cntrl106.responseToDir.m_msg_count       100754                       # Number of messages passed the buffer (Count)
system.ruby.dir_cntrl106.responseToDir.m_buf_msgs     0.011729                       # Average number of messages in buffer ((Count/Tick))
system.ruby.dir_cntrl107.power_state.pwrStateResidencyTicks::UNDEFINED   2147483750                       # Cumulative time (in ticks) in various power states (Tick)
system.ruby.dir_cntrl107.requestToDir.m_msg_count       128712                       # Number of messages passed the buffer (Count)
system.ruby.dir_cntrl107.requestToDir.m_buf_msgs     0.014984                       # Average number of messages in buffer ((Count/Tick))
system.ruby.dir_cntrl107.responseToDir.m_msg_count       100753                       # Number of messages passed the buffer (Count)
system.ruby.dir_cntrl107.responseToDir.m_buf_msgs     0.011729                       # Average number of messages in buffer ((Count/Tick))
system.ruby.dir_cntrl108.power_state.pwrStateResidencyTicks::UNDEFINED   2147483750                       # Cumulative time (in ticks) in various power states (Tick)
system.ruby.dir_cntrl108.requestToDir.m_msg_count       128721                       # Number of messages passed the buffer (Count)
system.ruby.dir_cntrl108.requestToDir.m_buf_msgs     0.014985                       # Average number of messages in buffer ((Count/Tick))
system.ruby.dir_cntrl108.responseToDir.m_msg_count       100607                       # Number of messages passed the buffer (Count)
system.ruby.dir_cntrl108.responseToDir.m_buf_msgs     0.011712                       # Average number of messages in buffer ((Count/Tick))
system.ruby.dir_cntrl109.power_state.pwrStateResidencyTicks::UNDEFINED   2147483750                       # Cumulative time (in ticks) in various power states (Tick)
system.ruby.dir_cntrl109.requestToDir.m_msg_count       128517                       # Number of messages passed the buffer (Count)
system.ruby.dir_cntrl109.requestToDir.m_buf_msgs     0.014961                       # Average number of messages in buffer ((Count/Tick))
system.ruby.dir_cntrl109.responseToDir.m_msg_count       100544                       # Number of messages passed the buffer (Count)
system.ruby.dir_cntrl109.responseToDir.m_buf_msgs     0.011705                       # Average number of messages in buffer ((Count/Tick))
system.ruby.dir_cntrl11.power_state.pwrStateResidencyTicks::UNDEFINED   2147483750                       # Cumulative time (in ticks) in various power states (Tick)
system.ruby.dir_cntrl11.requestToDir.m_msg_count       128590                       # Number of messages passed the buffer (Count)
system.ruby.dir_cntrl11.requestToDir.m_buf_msgs     0.014970                       # Average number of messages in buffer ((Count/Tick))
system.ruby.dir_cntrl11.responseToDir.m_msg_count       101220                       # Number of messages passed the buffer (Count)
[...]
system.ruby.network.sankey.vcvn13.vcvn5             0                       (Unspecified)
system.ruby.network.sankey.vcvn13.vcvn6             0                       (Unspecified)
system.ruby.network.sankey.vcvn13.vcvn7             0                       (Unspecified)
system.ruby.network.sankey.vcvn13.vcvn8             0                       (Unspecified)
system.ruby.network.sankey.vcvn13.vcvn9             0                       (Unspecified)
system.ruby.network.sankey.vcvn14.vcvn0             0                       (Unspecified)
system.ruby.network.sankey.vcvn14.vcvn1             0                       (Unspecified)
system.ruby.network.sankey.vcvn14.vcvn10            0                       (Unspecified)
system.ruby.network.sankey.vcvn14.vcvn11            0                       (Unspecified)
system.ruby.network.sankey.vcvn14.vcvn12     10206886                       (Unspecified)
system.ruby.network.sankey.vcvn14.vcvn13      2272400                       (Unspecified)
system.ruby.network.sankey.vcvn14.vcvn14       310575                       (Unspecified)
system.ruby.network.sankey.vcvn14.vcvn15        27405                       (Unspecified)
system.ruby.network.sankey.vcvn14.vcvn16      1466085                       (Unspecified)
system.ruby.network.sankey.vcvn14.vcvn17      1250014                       (Unspecified)
system.ruby.network.sankey.vcvn14.vcvn2             0                       (Unspecified)
system.ruby.network.sankey.vcvn14.vcvn3             0                       (Unspecified)
system.ruby.network.sankey.vcvn14.vcvn4             0                       (Unspecified)
system.ruby.network.sankey.vcvn14.vcvn5             0                       (Unspecified)
system.ruby.network.sankey.vcvn14.vcvn6             0                       (Unspecified)
system.ruby.network.sankey.vcvn14.vcvn7             0                       (Unspecified)
system.ruby.network.sankey.vcvn14.vcvn8             0                       (Unspecified)
system.ruby.network.sankey.vcvn14.vcvn9             0                       (Unspecified)
system.ruby.network.sankey.vcvn15.vcvn0             0                       (Unspecified)
system.ruby.network.sankey.vcvn15.vcvn1             0                       (Unspecified)
system.ruby.network.sankey.vcvn15.vcvn10            0                       (Unspecified)
system.ruby.network.sankey.vcvn15.vcvn11            0                       (Unspecified)
system.ruby.network.sankey.vcvn15.vcvn12      8586899                       (Unspecified)
system.ruby.network.sankey.vcvn15.vcvn13      1915466                       (Unspecified)
system.ruby.network.sankey.vcvn15.vcvn14       261315                       (Unspecified)
system.ruby.network.sankey.vcvn15.vcvn15        24630                       (Unspecified)
system.ruby.network.sankey.vcvn15.vcvn16      1284880                       (Unspecified)
system.ruby.network.sankey.vcvn15.vcvn17      1084667                       (Unspecified)
system.ruby.network.sankey.vcvn15.vcvn2             0                       (Unspecified)
system.ruby.network.sankey.vcvn15.vcvn3             0                       (Unspecified)
system.ruby.network.sankey.vcvn15.vcvn4             0                       (Unspecified)
system.ruby.network.sankey.vcvn15.vcvn5             0                       (Unspecified)
system.ruby.network.sankey.vcvn15.vcvn6             0                       (Unspecified)
system.ruby.network.sankey.vcvn15.vcvn7             0                       (Unspecified)
system.ruby.network.sankey.vcvn15.vcvn8             0                       (Unspecified)
system.ruby.network.sankey.vcvn15.vcvn9             0                       (Unspecified)
system.ruby.network.sankey.vcvn16.vcvn0             0                       (Unspecified)
system.ruby.network.sankey.vcvn16.vcvn1             0                       (Unspecified)
system.ruby.network.sankey.vcvn16.vcvn10            0                       (Unspecified)
system.ruby.network.sankey.vcvn16.vcvn11            0                       (Unspecified)
system.ruby.network.sankey.vcvn16.vcvn12            0                       (Unspecified)
system.ruby.network.sankey.vcvn16.vcvn13            0                       (Unspecified)
system.ruby.network.sankey.vcvn16.vcvn14            0                       (Unspecified)
system.ruby.network.sankey.vcvn16.vcvn15            0                       (Unspecified)
system.ruby.network.sankey.vcvn16.vcvn16      5379174                       (Unspecified)
system.ruby.network.sankey.vcvn16.vcvn17            0                       (Unspecified)
system.ruby.network.sankey.vcvn16.vcvn2             0                       (Unspecified)
system.ruby.network.sankey.vcvn16.vcvn3             0                       (Unspecified)
system.ruby.network.sankey.vcvn16.vcvn4             0                       (Unspecified)
system.ruby.network.sankey.vcvn16.vcvn5             0                       (Unspecified)
system.ruby.network.sankey.vcvn16.vcvn6             0                       (Unspecified)
system.ruby.network.sankey.vcvn16.vcvn7             0                       (Unspecified)
system.ruby.network.sankey.vcvn16.vcvn8             0                       (Unspecified)
system.ruby.network.sankey.vcvn16.vcvn9             0                       (Unspecified)
system.ruby.network.sankey.vcvn17.vcvn0             0                       (Unspecified)
system.ruby.network.sankey.vcvn17.vcvn1             0                       (Unspecified)
system.ruby.network.sankey.vcvn17.vcvn10            0                       (Unspecified)
system.ruby.network.sankey.vcvn17.vcvn11            0                       (Unspecified)
system.ruby.network.sankey.vcvn17.vcvn12            0                       (Unspecified)
system.ruby.network.sankey.vcvn17.vcvn13            0                       (Unspecified)
system.ruby.network.sankey.vcvn17.vcvn14            0                       (Unspecified)
system.ruby.network.sankey.vcvn17.vcvn15            0                       (Unspecified)
system.ruby.network.sankey.vcvn17.vcvn16            0                       (Unspecified)
system.ruby.network.sankey.vcvn17.vcvn17      1842370                       (Unspecified)
system.ruby.network.sankey.vcvn17.vcvn2             0                       (Unspecified)
system.ruby.network.sankey.vcvn17.vcvn3             0                       (Unspecified)
system.ruby.network.sankey.vcvn17.vcvn4             0                       (Unspecified)
system.ruby.network.sankey.vcvn17.vcvn5             0                       (Unspecified)
system.ruby.network.sankey.vcvn17.vcvn6             0                       (Unspecified)
system.ruby.network.sankey.vcvn17.vcvn7             0                       (Unspecified)
system.ruby.network.sankey.vcvn17.vcvn8             0                       (Unspecified)
system.ruby.network.sankey.vcvn17.vcvn9             0                       (Unspecified)
system.ruby.network.sankey.vcvn2.vcvn0        3593137                       (Unspecified)
system.ruby.network.sankey.vcvn2.vcvn1         267451                       (Unspecified)
system.ruby.network.sankey.vcvn2.vcvn10             0                       (Unspecified)
system.ruby.network.sankey.vcvn2.vcvn11             0                       (Unspecified)
system.ruby.network.sankey.vcvn2.vcvn12             0                       (Unspecified)
system.ruby.network.sankey.vcvn2.vcvn13             0                       (Unspecified)
system.ruby.network.sankey.vcvn2.vcvn14             0                       (Unspecified)
system.ruby.network.sankey.vcvn2.vcvn15             0                       (Unspecified)
system.ruby.network.sankey.vcvn2.vcvn16             0                       (Unspecified)
system.ruby.network.sankey.vcvn2.vcvn17             0                       (Unspecified)
system.ruby.network.sankey.vcvn2.vcvn2          10185                       (Unspecified)
system.ruby.network.sankey.vcvn2.vcvn3            250                       (Unspecified)
system.ruby.network.sankey.vcvn2.vcvn4           1859                       (Unspecified)
system.ruby.network.sankey.vcvn2.vcvn5           3527                       (Unspecified)
system.ruby.network.sankey.vcvn2.vcvn6              0                       (Unspecified)
system.ruby.network.sankey.vcvn2.vcvn7              0                       (Unspecified)
system.ruby.network.sankey.vcvn2.vcvn8              0                       (Unspecified)
system.ruby.network.sankey.vcvn2.vcvn9              0                       (Unspecified)
system.ruby.network.sankey.vcvn3.vcvn0        3592594                       (Unspecified)
system.ruby.network.sankey.vcvn3.vcvn1         267166                       (Unspecified)
system.ruby.network.sankey.vcvn3.vcvn10             0                       (Unspecified)
system.ruby.network.sankey.vcvn3.vcvn11             0                       (Unspecified)
system.ruby.network.sankey.vcvn3.vcvn12             0                       (Unspecified)
system.ruby.network.sankey.vcvn3.vcvn13             0                       (Unspecified)
system.ruby.network.sankey.vcvn3.vcvn14             0                       (Unspecified)
system.ruby.network.sankey.vcvn3.vcvn15             0                       (Unspecified)
system.ruby.network.sankey.vcvn3.vcvn16             0                       (Unspecified)
system.ruby.network.sankey.vcvn3.vcvn17             0                       (Unspecified)
system.ruby.network.sankey.vcvn3.vcvn2          10348                       (Unspecified)
system.ruby.network.sankey.vcvn3.vcvn3            258                       (Unspecified)
system.ruby.network.sankey.vcvn3.vcvn4           2055                       (Unspecified)
system.ruby.network.sankey.vcvn3.vcvn5           3638                       (Unspecified)
system.ruby.network.sankey.vcvn3.vcvn6              0                       (Unspecified)
system.ruby.network.sankey.vcvn3.vcvn7              0                       (Unspecified)
system.ruby.network.sankey.vcvn3.vcvn8              0                       (Unspecified)
system.ruby.network.sankey.vcvn3.vcvn9              0                       (Unspecified)
system.ruby.network.sankey.vcvn4.vcvn0              0                       (Unspecified)
system.ruby.network.sankey.vcvn4.vcvn1              0                       (Unspecified)
system.ruby.network.sankey.vcvn4.vcvn10             0                       (Unspecified)
system.ruby.network.sankey.vcvn4.vcvn11             0                       (Unspecified)
system.ruby.network.sankey.vcvn4.vcvn12             0                       (Unspecified)
system.ruby.network.sankey.vcvn4.vcvn13             0                       (Unspecified)
system.ruby.network.sankey.vcvn4.vcvn14             0                       (Unspecified)
system.ruby.network.sankey.vcvn4.vcvn15             0                       (Unspecified)
system.ruby.network.sankey.vcvn4.vcvn16             0                       (Unspecified)
system.ruby.network.sankey.vcvn4.vcvn17             0                       (Unspecified)
system.ruby.network.sankey.vcvn4.vcvn2              0                       (Unspecified)
system.ruby.network.sankey.vcvn4.vcvn3              0                       (Unspecified)
system.ruby.network.sankey.vcvn4.vcvn4        1425131                       (Unspecified)
system.ruby.network.sankey.vcvn4.vcvn5              0                       (Unspecified)
system.ruby.network.sankey.vcvn4.vcvn6              0                       (Unspecified)
system.ruby.network.sankey.vcvn4.vcvn7              0                       (Unspecified)
system.ruby.network.sankey.vcvn4.vcvn8              0                       (Unspecified)
system.ruby.network.sankey.vcvn4.vcvn9              0                       (Unspecified)
system.ruby.network.sankey.vcvn5.vcvn0              0                       (Unspecified)
system.ruby.network.sankey.vcvn5.vcvn1              0                       (Unspecified)
system.ruby.network.sankey.vcvn5.vcvn10             0                       (Unspecified)
system.ruby.network.sankey.vcvn5.vcvn11             0                       (Unspecified)
system.ruby.network.sankey.vcvn5.vcvn12             0                       (Unspecified)
system.ruby.network.sankey.vcvn5.vcvn13             0                       (Unspecified)
system.ruby.network.sankey.vcvn5.vcvn14             0                       (Unspecified)
system.ruby.network.sankey.vcvn5.vcvn15             0                       (Unspecified)
system.ruby.network.sankey.vcvn5.vcvn16             0                       (Unspecified)
system.ruby.network.sankey.vcvn5.vcvn17             0                       (Unspecified)
system.ruby.network.sankey.vcvn5.vcvn2              0                       (Unspecified)
system.ruby.network.sankey.vcvn5.vcvn3              0                       (Unspecified)
system.ruby.network.sankey.vcvn5.vcvn4              0                       (Unspecified)
system.ruby.network.sankey.vcvn5.vcvn5        3664173                       (Unspecified)
system.ruby.network.sankey.vcvn5.vcvn6              0                       (Unspecified)
system.ruby.network.sankey.vcvn5.vcvn7              0                       (Unspecified)
system.ruby.network.sankey.vcvn5.vcvn8              0                       (Unspecified)
system.ruby.network.sankey.vcvn5.vcvn9              0                       (Unspecified)
system.ruby.network.sankey.vcvn6.vcvn0              0                       (Unspecified)
system.ruby.network.sankey.vcvn6.vcvn1              0                       (Unspecified)
system.ruby.network.sankey.vcvn6.vcvn10             0                       (Unspecified)
system.ruby.network.sankey.vcvn6.vcvn11             0                       (Unspecified)
system.ruby.network.sankey.vcvn6.vcvn12             0                       (Unspecified)
system.ruby.network.sankey.vcvn6.vcvn13             0                       (Unspecified)
system.ruby.network.sankey.vcvn6.vcvn14             0                       (Unspecified)
system.ruby.network.sankey.vcvn6.vcvn15             0                       (Unspecified)
system.ruby.network.sankey.vcvn6.vcvn16             0                       (Unspecified)
system.ruby.network.sankey.vcvn6.vcvn17             0                       (Unspecified)
system.ruby.network.sankey.vcvn6.vcvn2              0                       (Unspecified)
system.ruby.network.sankey.vcvn6.vcvn3              0                       (Unspecified)
system.ruby.network.sankey.vcvn6.vcvn4              0                       (Unspecified)
system.ruby.network.sankey.vcvn6.vcvn5              0                       (Unspecified)
system.ruby.network.sankey.vcvn6.vcvn6              0                       (Unspecified)
system.ruby.network.sankey.vcvn6.vcvn7              0                       (Unspecified)
system.ruby.network.sankey.vcvn6.vcvn8              0                       (Unspecified)
system.ruby.network.sankey.vcvn6.vcvn9              0                       (Unspecified)
system.ruby.network.sankey.vcvn7.vcvn0              0                       (Unspecified)
system.ruby.network.sankey.vcvn7.vcvn1              0                       (Unspecified)
system.ruby.network.sankey.vcvn7.vcvn10             0                       (Unspecified)
system.ruby.network.sankey.vcvn7.vcvn11             0                       (Unspecified)
system.ruby.network.sankey.vcvn7.vcvn12             0                       (Unspecified)
system.ruby.network.sankey.vcvn7.vcvn13             0                       (Unspecified)
system.ruby.network.sankey.vcvn7.vcvn14             0                       (Unspecified)
system.ruby.network.sankey.vcvn7.vcvn15             0                       (Unspecified)
system.ruby.network.sankey.vcvn7.vcvn16             0                       (Unspecified)
system.ruby.network.sankey.vcvn7.vcvn17             0                       (Unspecified)
system.ruby.network.sankey.vcvn7.vcvn2              0                       (Unspecified)
system.ruby.network.sankey.vcvn7.vcvn3              0                       (Unspecified)
system.ruby.network.sankey.vcvn7.vcvn4              0                       (Unspecified)
system.ruby.network.sankey.vcvn7.vcvn5              0                       (Unspecified)
system.ruby.network.sankey.vcvn7.vcvn6              0                       (Unspecified)
system.ruby.network.sankey.vcvn7.vcvn7              0                       (Unspecified)
system.ruby.network.sankey.vcvn7.vcvn8              0                       (Unspecified)
system.ruby.network.sankey.vcvn7.vcvn9              0                       (Unspecified)
system.ruby.network.sankey.vcvn8.vcvn0              0                       (Unspecified)
system.ruby.network.sankey.vcvn8.vcvn1              0                       (Unspecified)
system.ruby.network.sankey.vcvn8.vcvn10             0                       (Unspecified)
system.ruby.network.sankey.vcvn8.vcvn11             0                       (Unspecified)
system.ruby.network.sankey.vcvn8.vcvn12             0                       (Unspecified)
system.ruby.network.sankey.vcvn8.vcvn13             0                       (Unspecified)
system.ruby.network.sankey.vcvn8.vcvn14             0                       (Unspecified)
system.ruby.network.sankey.vcvn8.vcvn15             0                       (Unspecified)
system.ruby.network.sankey.vcvn8.vcvn16             0                       (Unspecified)
system.ruby.network.sankey.vcvn8.vcvn17             0                       (Unspecified)
system.ruby.network.sankey.vcvn8.vcvn2              0                       (Unspecified)
system.ruby.network.sankey.vcvn8.vcvn3              0                       (Unspecified)
system.ruby.network.sankey.vcvn8.vcvn4              0                       (Unspecified)
system.ruby.network.sankey.vcvn8.vcvn5              0                       (Unspecified)
system.ruby.network.sankey.vcvn8.vcvn6              0                       (Unspecified)
system.ruby.network.sankey.vcvn8.vcvn7              0                       (Unspecified)
system.ruby.network.sankey.vcvn8.vcvn8              0                       (Unspecified)
system.ruby.network.sankey.vcvn8.vcvn9              0                       (Unspecified)
system.ruby.network.sankey.vcvn9.vcvn0              0                       (Unspecified)
system.ruby.network.sankey.vcvn9.vcvn1              0                       (Unspecified)
system.ruby.network.sankey.vcvn9.vcvn10             0                       (Unspecified)
system.ruby.network.sankey.vcvn9.vcvn11             0                       (Unspecified)
system.ruby.network.sankey.vcvn9.vcvn12             0                       (Unspecified)
system.ruby.network.sankey.vcvn9.vcvn13             0                       (Unspecified)
system.ruby.network.sankey.vcvn9.vcvn14             0                       (Unspecified)
system.ruby.network.sankey.vcvn9.vcvn15             0                       (Unspecified)
system.ruby.network.sankey.vcvn9.vcvn16             0                       (Unspecified)
system.ruby.network.sankey.vcvn9.vcvn17             0                       (Unspecified)
system.ruby.network.sankey.vcvn9.vcvn2              0                       (Unspecified)
system.ruby.network.sankey.vcvn9.vcvn3              0                       (Unspecified)
system.ruby.network.sankey.vcvn9.vcvn4              0                       (Unspecified)
system.ruby.network.sankey.vcvn9.vcvn5              0                       (Unspecified)
system.ruby.network.sankey.vcvn9.vcvn6              0                       (Unspecified)
system.ruby.network.sankey.vcvn9.vcvn7              0                       (Unspecified)
system.ruby.network.sankey.vcvn9.vcvn8              0                       (Unspecified)
system.ruby.network.sankey.vcvn9.vcvn9              0                       (Unspecified)

---------- End Simulation Statistics   ----------
