gem5 Simulator System.  https://www.gem5.org
gem5 is copyrighted software; use the --copyright option for details.

gem5 version 22.0.0.2
gem5 compiled Jun 17 2023 14:31:12
gem5 started Nov 18 2023 15:50:48
gem5 executing on mnemosyne14.ecn.purdue.edu, pid 23999
command line: ./build/Garnet_standalone/gem5.fast -d ./synth_outputs/simple/2b/mixed/mclb_hops_4_6_40cpus_4xdirs_4.0GHz/coh/ns_m_latop/0_19/ configs/auto_top/auto_top_synth.py --topology EscapeVirtualNetworks --noi_routers 20 --sim-cycles 2147483647 --injectionrate 0.19 --noc_clk 4.0GHz --sys-clock 4.0GHz --ruby-clock 4.0GHz --noi_clk 3.0GHz --router_map_file configs/topologies/paper_solutions/ns_m_latop.map --flat_vn_map_file configs/topologies/vn_maps_mclb/ns_m_latop_mclb_hops_4vns.vn --flat_nr_map_file configs/topologies/nr_list_mclb/ns_m_latop_mclb.nrl --ruby --mem_or_coh coh --mem-size 320000000 --num-dirs 160 --num-cpus 40 --network garnet --mem-type SimpleMemory --routing-algorithm 2 --use_escape_vns --synth_traffic --vcs-per-vnet 6 --evn_deadlock_partition 2 --evn_n_deadlock_free 1 --evn_min_n_deadlock_free 4

info: Standard input is not a terminal, disabling listeners.
ingesting configs/topologies/vn_maps_mclb/ns_m_latop_mclb_hops_4vns.vn
cpus(40)=[<m5.objects.GarnetSyntheticTraffic.GarnetSyntheticTraffic object at 0x7fbd910bf048>, <m5.objects.GarnetSyntheticTraffic.GarnetSyntheticTraffic object at 0x7fbd910bfe10>, <m5.objects.GarnetSyntheticTraffic.GarnetSyntheticTraffic object at 0x7fbd90c3d128>, <m5.objects.GarnetSyntheticTraffic.GarnetSyntheticTraffic object at 0x7fbd90c3d400>, <m5.objects.GarnetSyntheticTraffic.GarnetSyntheticTraffic object at 0x7fbd90c3d6d8>, <m5.objects.GarnetSyntheticTraffic.GarnetSyntheticTraffic object at 0x7fbd90c3d9b0>, <m5.objects.GarnetSyntheticTraffic.GarnetSyntheticTraffic object at 0x7fbd90c3dc88>, <m5.objects.GarnetSyntheticTraffic.GarnetSyntheticTraffic object at 0x7fbd90c3df60>, <m5.objects.GarnetSyntheticTraffic.GarnetSyntheticTraffic object at 0x7fbd90c46278>, <m5.objects.GarnetSyntheticTraffic.GarnetSyntheticTraffic object at 0x7fbd90c46550>, <m5.objects.GarnetSyntheticTraffic.GarnetSyntheticTraffic object at 0x7fbd90c46828>, <m5.objects.GarnetSyntheticTraffic.GarnetSyntheticTraffic object at 0x7fbd90c46b00>, <m5.objects.GarnetSyntheticTraffic.GarnetSyntheticTraffic object at 0x7fbd910bf860>, <m5.objects.GarnetSyntheticTraffic.GarnetSyntheticTraffic object at 0x7fbd910b0dd8>, <m5.objects.GarnetSyntheticTraffic.GarnetSyntheticTraffic object at 0x7fbd910ba6d8>, <m5.objects.GarnetSyntheticTraffic.GarnetSyntheticTraffic object at 0x7fbd910bad30>, <m5.objects.GarnetSyntheticTraffic.GarnetSyntheticTraffic object at 0x7fbd90c46d68>, <m5.objects.GarnetSyntheticTraffic.GarnetSyntheticTraffic object at 0x7fbd90c52080>, <m5.objects.GarnetSyntheticTraffic.GarnetSyntheticTraffic object at 0x7fbd90c52358>, <m5.objects.GarnetSyntheticTraffic.GarnetSyntheticTraffic object at 0x7fbd90c52630>, <m5.objects.GarnetSyntheticTraffic.GarnetSyntheticTraffic object at 0x7fbd90c52908>, <m5.objects.GarnetSyntheticTraffic.GarnetSyntheticTraffic object at 0x7fbd90c52be0>, <m5.objects.GarnetSyntheticTraffic.GarnetSyntheticTraffic object at 0x7fbd90c52eb8>, <m5.objects.GarnetSyntheticTraffic.GarnetSyntheticTraffic object at 0x7fbd90c591d0>, <m5.objects.GarnetSyntheticTraffic.GarnetSyntheticTraffic object at 0x7fbd90c594a8>, <m5.objects.GarnetSyntheticTraffic.GarnetSyntheticTraffic object at 0x7fbd90c59780>, <m5.objects.GarnetSyntheticTraffic.GarnetSyntheticTraffic object at 0x7fbd90c59a58>, <m5.objects.GarnetSyntheticTraffic.GarnetSyntheticTraffic object at 0x7fbd90c59d30>, <m5.objects.GarnetSyntheticTraffic.GarnetSyntheticTraffic object at 0x7fbd90c61048>, <m5.objects.GarnetSyntheticTraffic.GarnetSyntheticTraffic object at 0x7fbd90c61320>, <m5.objects.GarnetSyntheticTraffic.GarnetSyntheticTraffic object at 0x7fbd90c615f8>, <m5.objects.GarnetSyntheticTraffic.GarnetSyntheticTraffic object at 0x7fbd90c618d0>, <m5.objects.GarnetSyntheticTraffic.GarnetSyntheticTraffic object at 0x7fbd90c61ba8>, <m5.objects.GarnetSyntheticTraffic.GarnetSyntheticTraffic object at 0x7fbd90c61e80>, <m5.objects.GarnetSyntheticTraffic.GarnetSyntheticTraffic object at 0x7fbd90c6a198>, <m5.objects.GarnetSyntheticTraffic.GarnetSyntheticTraffic object at 0x7fbd90c6a470>, <m5.objects.GarnetSyntheticTraffic.GarnetSyntheticTraffic object at 0x7fbd90c6a748>, <m5.objects.GarnetSyntheticTraffic.GarnetSyntheticTraffic object at 0x7fbd90c6aa20>, <m5.objects.GarnetSyntheticTraffic.GarnetSyntheticTraffic object at 0x7fbd90c6acf8>, <m5.objects.GarnetSyntheticTraffic.GarnetSyntheticTraffic object at 0x7fbd90c6afd0>])
ingesting configs/topologies/nr_list_mclb/ns_m_latop_mclb.nrl
ingesting configs/topologies/vn_maps_mclb/ns_m_latop_mclb_hops_4vns.vn
ext_cdc_required = True
