gem5 Simulator System.  https://www.gem5.org
gem5 is copyrighted software; use the --copyright option for details.

gem5 version 22.0.0.2
gem5 compiled Jun 17 2023 14:31:12
gem5 started Nov 18 2023 15:50:21
gem5 executing on mnemosyne14.ecn.purdue.edu, pid 23881
command line: ./build/Garnet_standalone/gem5.fast -d ./synth_outputs/simple/2b/mixed/mclb_hops_4_6_40cpus_4xdirs_4.0GHz/coh/ns_s_latop/0_18/ configs/auto_top/auto_top_synth.py --topology EscapeVirtualNetworks --noi_routers 20 --sim-cycles 2147483647 --injectionrate 0.18 --noc_clk 4.0GHz --sys-clock 4.0GHz --ruby-clock 4.0GHz --noi_clk 3.6GHz --router_map_file configs/topologies/paper_solutions/ns_s_latop.map --flat_vn_map_file configs/topologies/vn_maps_mclb/ns_s_latop_mclb_hops_4vns.vn --flat_nr_map_file configs/topologies/nr_list_mclb/ns_s_latop_mclb.nrl --ruby --mem_or_coh coh --mem-size 320000000 --num-dirs 160 --num-cpus 40 --network garnet --mem-type SimpleMemory --routing-algorithm 2 --use_escape_vns --synth_traffic --vcs-per-vnet 6 --evn_deadlock_partition 2 --evn_n_deadlock_free 1 --evn_min_n_deadlock_free 4

info: Standard input is not a terminal, disabling listeners.
ingesting configs/topologies/vn_maps_mclb/ns_s_latop_mclb_hops_4vns.vn
cpus(40)=[<m5.objects.GarnetSyntheticTraffic.GarnetSyntheticTraffic object at 0x7f9543048048>, <m5.objects.GarnetSyntheticTraffic.GarnetSyntheticTraffic object at 0x7f9543048e10>, <m5.objects.GarnetSyntheticTraffic.GarnetSyntheticTraffic object at 0x7f9542bc5128>, <m5.objects.GarnetSyntheticTraffic.GarnetSyntheticTraffic object at 0x7f9542bc5400>, <m5.objects.GarnetSyntheticTraffic.GarnetSyntheticTraffic object at 0x7f9542bc56d8>, <m5.objects.GarnetSyntheticTraffic.GarnetSyntheticTraffic object at 0x7f9542bc59b0>, <m5.objects.GarnetSyntheticTraffic.GarnetSyntheticTraffic object at 0x7f9542bc5c88>, <m5.objects.GarnetSyntheticTraffic.GarnetSyntheticTraffic object at 0x7f9542bc5f60>, <m5.objects.GarnetSyntheticTraffic.GarnetSyntheticTraffic object at 0x7f9542bce278>, <m5.objects.GarnetSyntheticTraffic.GarnetSyntheticTraffic object at 0x7f9542bce550>, <m5.objects.GarnetSyntheticTraffic.GarnetSyntheticTraffic object at 0x7f9542bce828>, <m5.objects.GarnetSyntheticTraffic.GarnetSyntheticTraffic object at 0x7f9542bceb00>, <m5.objects.GarnetSyntheticTraffic.GarnetSyntheticTraffic object at 0x7f9543048860>, <m5.objects.GarnetSyntheticTraffic.GarnetSyntheticTraffic object at 0x7f9543038eb8>, <m5.objects.GarnetSyntheticTraffic.GarnetSyntheticTraffic object at 0x7f95430426d8>, <m5.objects.GarnetSyntheticTraffic.GarnetSyntheticTraffic object at 0x7f9543042d30>, <m5.objects.GarnetSyntheticTraffic.GarnetSyntheticTraffic object at 0x7f9542bced68>, <m5.objects.GarnetSyntheticTraffic.GarnetSyntheticTraffic object at 0x7f9542bda080>, <m5.objects.GarnetSyntheticTraffic.GarnetSyntheticTraffic object at 0x7f9542bda358>, <m5.objects.GarnetSyntheticTraffic.GarnetSyntheticTraffic object at 0x7f9542bda630>, <m5.objects.GarnetSyntheticTraffic.GarnetSyntheticTraffic object at 0x7f9542bda908>, <m5.objects.GarnetSyntheticTraffic.GarnetSyntheticTraffic object at 0x7f9542bdabe0>, <m5.objects.GarnetSyntheticTraffic.GarnetSyntheticTraffic object at 0x7f9542bdaeb8>, <m5.objects.GarnetSyntheticTraffic.GarnetSyntheticTraffic object at 0x7f9542be11d0>, <m5.objects.GarnetSyntheticTraffic.GarnetSyntheticTraffic object at 0x7f9542be14a8>, <m5.objects.GarnetSyntheticTraffic.GarnetSyntheticTraffic object at 0x7f9542be1780>, <m5.objects.GarnetSyntheticTraffic.GarnetSyntheticTraffic object at 0x7f9542be1a58>, <m5.objects.GarnetSyntheticTraffic.GarnetSyntheticTraffic object at 0x7f9542be1d30>, <m5.objects.GarnetSyntheticTraffic.GarnetSyntheticTraffic object at 0x7f9542be9048>, <m5.objects.GarnetSyntheticTraffic.GarnetSyntheticTraffic object at 0x7f9542be9320>, <m5.objects.GarnetSyntheticTraffic.GarnetSyntheticTraffic object at 0x7f9542be95f8>, <m5.objects.GarnetSyntheticTraffic.GarnetSyntheticTraffic object at 0x7f9542be98d0>, <m5.objects.GarnetSyntheticTraffic.GarnetSyntheticTraffic object at 0x7f9542be9ba8>, <m5.objects.GarnetSyntheticTraffic.GarnetSyntheticTraffic object at 0x7f9542be9e80>, <m5.objects.GarnetSyntheticTraffic.GarnetSyntheticTraffic object at 0x7f9542bf2198>, <m5.objects.GarnetSyntheticTraffic.GarnetSyntheticTraffic object at 0x7f9542bf2470>, <m5.objects.GarnetSyntheticTraffic.GarnetSyntheticTraffic object at 0x7f9542bf2748>, <m5.objects.GarnetSyntheticTraffic.GarnetSyntheticTraffic object at 0x7f9542bf2a20>, <m5.objects.GarnetSyntheticTraffic.GarnetSyntheticTraffic object at 0x7f9542bf2cf8>, <m5.objects.GarnetSyntheticTraffic.GarnetSyntheticTraffic object at 0x7f9542bf2fd0>])
ingesting configs/topologies/nr_list_mclb/ns_s_latop_mclb.nrl
ingesting configs/topologies/vn_maps_mclb/ns_s_latop_mclb_hops_4vns.vn
ext_cdc_required = True
