gem5 Simulator System.  https://www.gem5.org
gem5 is copyrighted software; use the --copyright option for details.

gem5 version 22.0.0.2
gem5 compiled Jun 17 2023 14:31:12
gem5 started Nov 18 2023 15:50:20
gem5 executing on mnemosyne14.ecn.purdue.edu, pid 23876
command line: ./build/Garnet_standalone/gem5.fast -d ./synth_outputs/simple/2b/mixed/mclb_hops_4_6_40cpus_4xdirs_4.0GHz/coh/lpbt_m_latop/0_18/ configs/auto_top/auto_top_synth.py --topology EscapeVirtualNetworks --noi_routers 20 --sim-cycles 2147483647 --injectionrate 0.18 --noc_clk 4.0GHz --sys-clock 4.0GHz --ruby-clock 4.0GHz --noi_clk 3.0GHz --router_map_file configs/topologies/paper_solutions/lpbt_m_latop.map --flat_vn_map_file configs/topologies/vn_maps_mclb/lpbt_m_latop_mclb_hops_4vns.vn --flat_nr_map_file configs/topologies/nr_list_mclb/lpbt_m_latop_mclb.nrl --ruby --mem_or_coh coh --mem-size 320000000 --num-dirs 160 --num-cpus 40 --network garnet --mem-type SimpleMemory --routing-algorithm 2 --use_escape_vns --synth_traffic --vcs-per-vnet 6 --evn_deadlock_partition 2 --evn_n_deadlock_free 1 --evn_min_n_deadlock_free 4

info: Standard input is not a terminal, disabling listeners.
ingesting configs/topologies/vn_maps_mclb/lpbt_m_latop_mclb_hops_4vns.vn
cpus(40)=[<m5.objects.GarnetSyntheticTraffic.GarnetSyntheticTraffic object at 0x7f2aac9e9080>, <m5.objects.GarnetSyntheticTraffic.GarnetSyntheticTraffic object at 0x7f2aac9e9e48>, <m5.objects.GarnetSyntheticTraffic.GarnetSyntheticTraffic object at 0x7f2aac565160>, <m5.objects.GarnetSyntheticTraffic.GarnetSyntheticTraffic object at 0x7f2aac565438>, <m5.objects.GarnetSyntheticTraffic.GarnetSyntheticTraffic object at 0x7f2aac565710>, <m5.objects.GarnetSyntheticTraffic.GarnetSyntheticTraffic object at 0x7f2aac5659e8>, <m5.objects.GarnetSyntheticTraffic.GarnetSyntheticTraffic object at 0x7f2aac565c88>, <m5.objects.GarnetSyntheticTraffic.GarnetSyntheticTraffic object at 0x7f2aac565f60>, <m5.objects.GarnetSyntheticTraffic.GarnetSyntheticTraffic object at 0x7f2aac56e278>, <m5.objects.GarnetSyntheticTraffic.GarnetSyntheticTraffic object at 0x7f2aac56e550>, <m5.objects.GarnetSyntheticTraffic.GarnetSyntheticTraffic object at 0x7f2aac56e828>, <m5.objects.GarnetSyntheticTraffic.GarnetSyntheticTraffic object at 0x7f2aac56eb00>, <m5.objects.GarnetSyntheticTraffic.GarnetSyntheticTraffic object at 0x7f2aac9e9898>, <m5.objects.GarnetSyntheticTraffic.GarnetSyntheticTraffic object at 0x7f2aac9d9eb8>, <m5.objects.GarnetSyntheticTraffic.GarnetSyntheticTraffic object at 0x7f2aac9e3710>, <m5.objects.GarnetSyntheticTraffic.GarnetSyntheticTraffic object at 0x7f2aac9e3d68>, <m5.objects.GarnetSyntheticTraffic.GarnetSyntheticTraffic object at 0x7f2aac56ed68>, <m5.objects.GarnetSyntheticTraffic.GarnetSyntheticTraffic object at 0x7f2aac57a080>, <m5.objects.GarnetSyntheticTraffic.GarnetSyntheticTraffic object at 0x7f2aac57a358>, <m5.objects.GarnetSyntheticTraffic.GarnetSyntheticTraffic object at 0x7f2aac57a630>, <m5.objects.GarnetSyntheticTraffic.GarnetSyntheticTraffic object at 0x7f2aac57a908>, <m5.objects.GarnetSyntheticTraffic.GarnetSyntheticTraffic object at 0x7f2aac57abe0>, <m5.objects.GarnetSyntheticTraffic.GarnetSyntheticTraffic object at 0x7f2aac57aeb8>, <m5.objects.GarnetSyntheticTraffic.GarnetSyntheticTraffic object at 0x7f2aac5811d0>, <m5.objects.GarnetSyntheticTraffic.GarnetSyntheticTraffic object at 0x7f2aac5814a8>, <m5.objects.GarnetSyntheticTraffic.GarnetSyntheticTraffic object at 0x7f2aac581780>, <m5.objects.GarnetSyntheticTraffic.GarnetSyntheticTraffic object at 0x7f2aac581a58>, <m5.objects.GarnetSyntheticTraffic.GarnetSyntheticTraffic object at 0x7f2aac581d30>, <m5.objects.GarnetSyntheticTraffic.GarnetSyntheticTraffic object at 0x7f2aac589048>, <m5.objects.GarnetSyntheticTraffic.GarnetSyntheticTraffic object at 0x7f2aac589320>, <m5.objects.GarnetSyntheticTraffic.GarnetSyntheticTraffic object at 0x7f2aac5895f8>, <m5.objects.GarnetSyntheticTraffic.GarnetSyntheticTraffic object at 0x7f2aac5898d0>, <m5.objects.GarnetSyntheticTraffic.GarnetSyntheticTraffic object at 0x7f2aac589ba8>, <m5.objects.GarnetSyntheticTraffic.GarnetSyntheticTraffic object at 0x7f2aac589e80>, <m5.objects.GarnetSyntheticTraffic.GarnetSyntheticTraffic object at 0x7f2aac592198>, <m5.objects.GarnetSyntheticTraffic.GarnetSyntheticTraffic object at 0x7f2aac592470>, <m5.objects.GarnetSyntheticTraffic.GarnetSyntheticTraffic object at 0x7f2aac592748>, <m5.objects.GarnetSyntheticTraffic.GarnetSyntheticTraffic object at 0x7f2aac592a20>, <m5.objects.GarnetSyntheticTraffic.GarnetSyntheticTraffic object at 0x7f2aac592cf8>, <m5.objects.GarnetSyntheticTraffic.GarnetSyntheticTraffic object at 0x7f2aac592fd0>])
ingesting configs/topologies/nr_list_mclb/lpbt_m_latop_mclb.nrl
ingesting configs/topologies/vn_maps_mclb/lpbt_m_latop_mclb_hops_4vns.vn
ext_cdc_required = True
