gem5 Simulator System.  https://www.gem5.org
gem5 is copyrighted software; use the --copyright option for details.

gem5 version 22.0.0.2
gem5 compiled Jun 17 2023 14:31:12
gem5 started Nov 18 2023 15:49:17
gem5 executing on mnemosyne14.ecn.purdue.edu, pid 23494
command line: ./build/Garnet_standalone/gem5.fast -d ./synth_outputs/simple/2b/mixed/mclb_hops_4_6_40cpus_4xdirs_4.0GHz/coh/ns_s_scop/0_165/ configs/auto_top/auto_top_synth.py --topology EscapeVirtualNetworks --noi_routers 20 --sim-cycles 2147483647 --injectionrate 0.165 --noc_clk 4.0GHz --sys-clock 4.0GHz --ruby-clock 4.0GHz --noi_clk 3.6GHz --router_map_file configs/topologies/paper_solutions/ns_s_scop.map --flat_vn_map_file configs/topologies/vn_maps_mclb/ns_s_scop_mclb_hops_4vns.vn --flat_nr_map_file configs/topologies/nr_list_mclb/ns_s_scop_mclb.nrl --ruby --mem_or_coh coh --mem-size 320000000 --num-dirs 160 --num-cpus 40 --network garnet --mem-type SimpleMemory --routing-algorithm 2 --use_escape_vns --synth_traffic --vcs-per-vnet 6 --evn_deadlock_partition 2 --evn_n_deadlock_free 1 --evn_min_n_deadlock_free 4

info: Standard input is not a terminal, disabling listeners.
ingesting configs/topologies/vn_maps_mclb/ns_s_scop_mclb_hops_4vns.vn
cpus(40)=[<m5.objects.GarnetSyntheticTraffic.GarnetSyntheticTraffic object at 0x7fd433709080>, <m5.objects.GarnetSyntheticTraffic.GarnetSyntheticTraffic object at 0x7fd433709e48>, <m5.objects.GarnetSyntheticTraffic.GarnetSyntheticTraffic object at 0x7fd433285160>, <m5.objects.GarnetSyntheticTraffic.GarnetSyntheticTraffic object at 0x7fd433285438>, <m5.objects.GarnetSyntheticTraffic.GarnetSyntheticTraffic object at 0x7fd433285710>, <m5.objects.GarnetSyntheticTraffic.GarnetSyntheticTraffic object at 0x7fd4332859e8>, <m5.objects.GarnetSyntheticTraffic.GarnetSyntheticTraffic object at 0x7fd433285cc0>, <m5.objects.GarnetSyntheticTraffic.GarnetSyntheticTraffic object at 0x7fd433285f98>, <m5.objects.GarnetSyntheticTraffic.GarnetSyntheticTraffic object at 0x7fd43328e2b0>, <m5.objects.GarnetSyntheticTraffic.GarnetSyntheticTraffic object at 0x7fd43328e588>, <m5.objects.GarnetSyntheticTraffic.GarnetSyntheticTraffic object at 0x7fd43328e860>, <m5.objects.GarnetSyntheticTraffic.GarnetSyntheticTraffic object at 0x7fd43328eb38>, <m5.objects.GarnetSyntheticTraffic.GarnetSyntheticTraffic object at 0x7fd433709898>, <m5.objects.GarnetSyntheticTraffic.GarnetSyntheticTraffic object at 0x7fd4336f8eb8>, <m5.objects.GarnetSyntheticTraffic.GarnetSyntheticTraffic object at 0x7fd433702710>, <m5.objects.GarnetSyntheticTraffic.GarnetSyntheticTraffic object at 0x7fd433702d68>, <m5.objects.GarnetSyntheticTraffic.GarnetSyntheticTraffic object at 0x7fd43328eda0>, <m5.objects.GarnetSyntheticTraffic.GarnetSyntheticTraffic object at 0x7fd43329a0b8>, <m5.objects.GarnetSyntheticTraffic.GarnetSyntheticTraffic object at 0x7fd43329a390>, <m5.objects.GarnetSyntheticTraffic.GarnetSyntheticTraffic object at 0x7fd43329a668>, <m5.objects.GarnetSyntheticTraffic.GarnetSyntheticTraffic object at 0x7fd43329a940>, <m5.objects.GarnetSyntheticTraffic.GarnetSyntheticTraffic object at 0x7fd43329ac18>, <m5.objects.GarnetSyntheticTraffic.GarnetSyntheticTraffic object at 0x7fd43329aef0>, <m5.objects.GarnetSyntheticTraffic.GarnetSyntheticTraffic object at 0x7fd4332a1208>, <m5.objects.GarnetSyntheticTraffic.GarnetSyntheticTraffic object at 0x7fd4332a14e0>, <m5.objects.GarnetSyntheticTraffic.GarnetSyntheticTraffic object at 0x7fd4332a17b8>, <m5.objects.GarnetSyntheticTraffic.GarnetSyntheticTraffic object at 0x7fd4332a1a90>, <m5.objects.GarnetSyntheticTraffic.GarnetSyntheticTraffic object at 0x7fd4332a1d68>, <m5.objects.GarnetSyntheticTraffic.GarnetSyntheticTraffic object at 0x7fd4332a9080>, <m5.objects.GarnetSyntheticTraffic.GarnetSyntheticTraffic object at 0x7fd4332a9358>, <m5.objects.GarnetSyntheticTraffic.GarnetSyntheticTraffic object at 0x7fd4332a9630>, <m5.objects.GarnetSyntheticTraffic.GarnetSyntheticTraffic object at 0x7fd4332a9908>, <m5.objects.GarnetSyntheticTraffic.GarnetSyntheticTraffic object at 0x7fd4332a9be0>, <m5.objects.GarnetSyntheticTraffic.GarnetSyntheticTraffic object at 0x7fd4332a9eb8>, <m5.objects.GarnetSyntheticTraffic.GarnetSyntheticTraffic object at 0x7fd4332b21d0>, <m5.objects.GarnetSyntheticTraffic.GarnetSyntheticTraffic object at 0x7fd4332b24a8>, <m5.objects.GarnetSyntheticTraffic.GarnetSyntheticTraffic object at 0x7fd4332b2780>, <m5.objects.GarnetSyntheticTraffic.GarnetSyntheticTraffic object at 0x7fd4332b2a58>, <m5.objects.GarnetSyntheticTraffic.GarnetSyntheticTraffic object at 0x7fd4332b2d30>, <m5.objects.GarnetSyntheticTraffic.GarnetSyntheticTraffic object at 0x7fd4332b9048>])
ingesting configs/topologies/nr_list_mclb/ns_s_scop_mclb.nrl
ingesting configs/topologies/vn_maps_mclb/ns_s_scop_mclb_hops_4vns.vn
ext_cdc_required = True
