
---------- Begin Simulation Statistics ----------
simSeconds                                   0.002147                       # Number of seconds simulated (Second)
simTicks                                   2147483750                       # Number of ticks simulated (Tick)
finalTick                                  2147483750                       # Number of ticks from beginning of simulation (restored from checkpoints and never reset) (Tick)
simFreq                                  1000000000000                       # The number of ticks per simulated second ((Tick/Second))
hostSeconds                                   4332.81                       # Real time elapsed on the host (Second)
hostTickRate                                   495633                       # The number of ticks simulated per host second (ticks/s) ((Tick/Second))
hostMemory                                     712220                       # Number of bytes of host memory used (Byte)
system.clk_domain.clock                           250                       # Clock period in ticks (Tick)
system.cpu0.power_state.pwrStateResidencyTicks::UNDEFINED   2147483750                       # Cumulative time (in ticks) in various power states (Tick)
system.cpu1.power_state.pwrStateResidencyTicks::UNDEFINED   2147483750                       # Cumulative time (in ticks) in various power states (Tick)
system.cpu10.power_state.pwrStateResidencyTicks::UNDEFINED   2147483750                       # Cumulative time (in ticks) in various power states (Tick)
system.cpu11.power_state.pwrStateResidencyTicks::UNDEFINED   2147483750                       # Cumulative time (in ticks) in various power states (Tick)
system.cpu12.power_state.pwrStateResidencyTicks::UNDEFINED   2147483750                       # Cumulative time (in ticks) in various power states (Tick)
system.cpu13.power_state.pwrStateResidencyTicks::UNDEFINED   2147483750                       # Cumulative time (in ticks) in various power states (Tick)
system.cpu14.power_state.pwrStateResidencyTicks::UNDEFINED   2147483750                       # Cumulative time (in ticks) in various power states (Tick)
system.cpu15.power_state.pwrStateResidencyTicks::UNDEFINED   2147483750                       # Cumulative time (in ticks) in various power states (Tick)
system.cpu16.power_state.pwrStateResidencyTicks::UNDEFINED   2147483750                       # Cumulative time (in ticks) in various power states (Tick)
system.cpu17.power_state.pwrStateResidencyTicks::UNDEFINED   2147483750                       # Cumulative time (in ticks) in various power states (Tick)
system.cpu18.power_state.pwrStateResidencyTicks::UNDEFINED   2147483750                       # Cumulative time (in ticks) in various power states (Tick)
system.cpu19.power_state.pwrStateResidencyTicks::UNDEFINED   2147483750                       # Cumulative time (in ticks) in various power states (Tick)
system.cpu2.power_state.pwrStateResidencyTicks::UNDEFINED   2147483750                       # Cumulative time (in ticks) in various power states (Tick)
system.cpu20.power_state.pwrStateResidencyTicks::UNDEFINED   2147483750                       # Cumulative time (in ticks) in various power states (Tick)
system.cpu21.power_state.pwrStateResidencyTicks::UNDEFINED   2147483750                       # Cumulative time (in ticks) in various power states (Tick)
system.cpu22.power_state.pwrStateResidencyTicks::UNDEFINED   2147483750                       # Cumulative time (in ticks) in various power states (Tick)
system.cpu23.power_state.pwrStateResidencyTicks::UNDEFINED   2147483750                       # Cumulative time (in ticks) in various power states (Tick)
system.cpu24.power_state.pwrStateResidencyTicks::UNDEFINED   2147483750                       # Cumulative time (in ticks) in various power states (Tick)
system.cpu25.power_state.pwrStateResidencyTicks::UNDEFINED   2147483750                       # Cumulative time (in ticks) in various power states (Tick)
system.cpu26.power_state.pwrStateResidencyTicks::UNDEFINED   2147483750                       # Cumulative time (in ticks) in various power states (Tick)
system.cpu27.power_state.pwrStateResidencyTicks::UNDEFINED   2147483750                       # Cumulative time (in ticks) in various power states (Tick)
system.cpu28.power_state.pwrStateResidencyTicks::UNDEFINED   2147483750                       # Cumulative time (in ticks) in various power states (Tick)
system.cpu29.power_state.pwrStateResidencyTicks::UNDEFINED   2147483750                       # Cumulative time (in ticks) in various power states (Tick)
system.cpu3.power_state.pwrStateResidencyTicks::UNDEFINED   2147483750                       # Cumulative time (in ticks) in various power states (Tick)
system.cpu30.power_state.pwrStateResidencyTicks::UNDEFINED   2147483750                       # Cumulative time (in ticks) in various power states (Tick)
system.cpu31.power_state.pwrStateResidencyTicks::UNDEFINED   2147483750                       # Cumulative time (in ticks) in various power states (Tick)
system.cpu32.power_state.pwrStateResidencyTicks::UNDEFINED   2147483750                       # Cumulative time (in ticks) in various power states (Tick)
system.cpu33.power_state.pwrStateResidencyTicks::UNDEFINED   2147483750                       # Cumulative time (in ticks) in various power states (Tick)
system.cpu34.power_state.pwrStateResidencyTicks::UNDEFINED   2147483750                       # Cumulative time (in ticks) in various power states (Tick)
system.cpu35.power_state.pwrStateResidencyTicks::UNDEFINED   2147483750                       # Cumulative time (in ticks) in various power states (Tick)
system.cpu36.power_state.pwrStateResidencyTicks::UNDEFINED   2147483750                       # Cumulative time (in ticks) in various power states (Tick)
system.cpu37.power_state.pwrStateResidencyTicks::UNDEFINED   2147483750                       # Cumulative time (in ticks) in various power states (Tick)
system.cpu38.power_state.pwrStateResidencyTicks::UNDEFINED   2147483750                       # Cumulative time (in ticks) in various power states (Tick)
system.cpu39.power_state.pwrStateResidencyTicks::UNDEFINED   2147483750                       # Cumulative time (in ticks) in various power states (Tick)
system.cpu4.power_state.pwrStateResidencyTicks::UNDEFINED   2147483750                       # Cumulative time (in ticks) in various power states (Tick)
system.cpu40.power_state.pwrStateResidencyTicks::UNDEFINED   2147483750                       # Cumulative time (in ticks) in various power states (Tick)
system.cpu41.power_state.pwrStateResidencyTicks::UNDEFINED   2147483750                       # Cumulative time (in ticks) in various power states (Tick)
system.cpu42.power_state.pwrStateResidencyTicks::UNDEFINED   2147483750                       # Cumulative time (in ticks) in various power states (Tick)
system.cpu43.power_state.pwrStateResidencyTicks::UNDEFINED   2147483750                       # Cumulative time (in ticks) in various power states (Tick)
system.cpu44.power_state.pwrStateResidencyTicks::UNDEFINED   2147483750                       # Cumulative time (in ticks) in various power states (Tick)
system.cpu45.power_state.pwrStateResidencyTicks::UNDEFINED   2147483750                       # Cumulative time (in ticks) in various power states (Tick)
system.cpu46.power_state.pwrStateResidencyTicks::UNDEFINED   2147483750                       # Cumulative time (in ticks) in various power states (Tick)
system.cpu47.power_state.pwrStateResidencyTicks::UNDEFINED   2147483750                       # Cumulative time (in ticks) in various power states (Tick)
system.cpu48.power_state.pwrStateResidencyTicks::UNDEFINED   2147483750                       # Cumulative time (in ticks) in various power states (Tick)
system.cpu49.power_state.pwrStateResidencyTicks::UNDEFINED   2147483750                       # Cumulative time (in ticks) in various power states (Tick)
system.cpu5.power_state.pwrStateResidencyTicks::UNDEFINED   2147483750                       # Cumulative time (in ticks) in various power states (Tick)
system.cpu50.power_state.pwrStateResidencyTicks::UNDEFINED   2147483750                       # Cumulative time (in ticks) in various power states (Tick)
system.cpu51.power_state.pwrStateResidencyTicks::UNDEFINED   2147483750                       # Cumulative time (in ticks) in various power states (Tick)
system.cpu52.power_state.pwrStateResidencyTicks::UNDEFINED   2147483750                       # Cumulative time (in ticks) in various power states (Tick)
system.cpu53.power_state.pwrStateResidencyTicks::UNDEFINED   2147483750                       # Cumulative time (in ticks) in various power states (Tick)
system.cpu54.power_state.pwrStateResidencyTicks::UNDEFINED   2147483750                       # Cumulative time (in ticks) in various power states (Tick)
system.cpu55.power_state.pwrStateResidencyTicks::UNDEFINED   2147483750                       # Cumulative time (in ticks) in various power states (Tick)
system.cpu56.power_state.pwrStateResidencyTicks::UNDEFINED   2147483750                       # Cumulative time (in ticks) in various power states (Tick)
system.cpu57.power_state.pwrStateResidencyTicks::UNDEFINED   2147483750                       # Cumulative time (in ticks) in various power states (Tick)
system.cpu58.power_state.pwrStateResidencyTicks::UNDEFINED   2147483750                       # Cumulative time (in ticks) in various power states (Tick)
system.cpu59.power_state.pwrStateResidencyTicks::UNDEFINED   2147483750                       # Cumulative time (in ticks) in various power states (Tick)
system.cpu6.power_state.pwrStateResidencyTicks::UNDEFINED   2147483750                       # Cumulative time (in ticks) in various power states (Tick)
system.cpu60.power_state.pwrStateResidencyTicks::UNDEFINED   2147483750                       # Cumulative time (in ticks) in various power states (Tick)
system.cpu61.power_state.pwrStateResidencyTicks::UNDEFINED   2147483750                       # Cumulative time (in ticks) in various power states (Tick)
system.cpu62.power_state.pwrStateResidencyTicks::UNDEFINED   2147483750                       # Cumulative time (in ticks) in various power states (Tick)
system.cpu63.power_state.pwrStateResidencyTicks::UNDEFINED   2147483750                       # Cumulative time (in ticks) in various power states (Tick)
system.cpu7.power_state.pwrStateResidencyTicks::UNDEFINED   2147483750                       # Cumulative time (in ticks) in various power states (Tick)
system.cpu8.power_state.pwrStateResidencyTicks::UNDEFINED   2147483750                       # Cumulative time (in ticks) in various power states (Tick)
system.cpu9.power_state.pwrStateResidencyTicks::UNDEFINED   2147483750                       # Cumulative time (in ticks) in various power states (Tick)
system.mem_ctrls0.power_state.pwrStateResidencyTicks::UNDEFINED   2147483750                       # Cumulative time (in ticks) in various power states (Tick)
system.mem_ctrls1.power_state.pwrStateResidencyTicks::UNDEFINED   2147483750                       # Cumulative time (in ticks) in various power states (Tick)
system.mem_ctrls10.power_state.pwrStateResidencyTicks::UNDEFINED   2147483750                       # Cumulative time (in ticks) in various power states (Tick)
system.mem_ctrls100.power_state.pwrStateResidencyTicks::UNDEFINED   2147483750                       # Cumulative time (in ticks) in various power states (Tick)
system.mem_ctrls101.power_state.pwrStateResidencyTicks::UNDEFINED   2147483750                       # Cumulative time (in ticks) in various power states (Tick)
system.mem_ctrls102.power_state.pwrStateResidencyTicks::UNDEFINED   2147483750                       # Cumulative time (in ticks) in various power states (Tick)
system.mem_ctrls103.power_state.pwrStateResidencyTicks::UNDEFINED   2147483750                       # Cumulative time (in ticks) in various power states (Tick)
system.mem_ctrls104.power_state.pwrStateResidencyTicks::UNDEFINED   2147483750                       # Cumulative time (in ticks) in various power states (Tick)
system.mem_ctrls105.power_state.pwrStateResidencyTicks::UNDEFINED   2147483750                       # Cumulative time (in ticks) in various power states (Tick)
system.mem_ctrls106.power_state.pwrStateResidencyTicks::UNDEFINED   2147483750                       # Cumulative time (in ticks) in various power states (Tick)
system.mem_ctrls107.power_state.pwrStateResidencyTicks::UNDEFINED   2147483750                       # Cumulative time (in ticks) in various power states (Tick)
system.mem_ctrls108.power_state.pwrStateResidencyTicks::UNDEFINED   2147483750                       # Cumulative time (in ticks) in various power states (Tick)
system.mem_ctrls109.power_state.pwrStateResidencyTicks::UNDEFINED   2147483750                       # Cumulative time (in ticks) in various power states (Tick)
system.mem_ctrls11.power_state.pwrStateResidencyTicks::UNDEFINED   2147483750                       # Cumulative time (in ticks) in various power states (Tick)
system.mem_ctrls110.power_state.pwrStateResidencyTicks::UNDEFINED   2147483750                       # Cumulative time (in ticks) in various power states (Tick)
system.mem_ctrls111.power_state.pwrStateResidencyTicks::UNDEFINED   2147483750                       # Cumulative time (in ticks) in various power states (Tick)
system.mem_ctrls112.power_state.pwrStateResidencyTicks::UNDEFINED   2147483750                       # Cumulative time (in ticks) in various power states (Tick)
system.mem_ctrls113.power_state.pwrStateResidencyTicks::UNDEFINED   2147483750                       # Cumulative time (in ticks) in various power states (Tick)
system.mem_ctrls114.power_state.pwrStateResidencyTicks::UNDEFINED   2147483750                       # Cumulative time (in ticks) in various power states (Tick)
system.mem_ctrls115.power_state.pwrStateResidencyTicks::UNDEFINED   2147483750                       # Cumulative time (in ticks) in various power states (Tick)
system.mem_ctrls116.power_state.pwrStateResidencyTicks::UNDEFINED   2147483750                       # Cumulative time (in ticks) in various power states (Tick)
system.mem_ctrls117.power_state.pwrStateResidencyTicks::UNDEFINED   2147483750                       # Cumulative time (in ticks) in various power states (Tick)
system.mem_ctrls118.power_state.pwrStateResidencyTicks::UNDEFINED   2147483750                       # Cumulative time (in ticks) in various power states (Tick)
system.mem_ctrls119.power_state.pwrStateResidencyTicks::UNDEFINED   2147483750                       # Cumulative time (in ticks) in various power states (Tick)
system.mem_ctrls12.power_state.pwrStateResidencyTicks::UNDEFINED   2147483750                       # Cumulative time (in ticks) in various power states (Tick)
system.mem_ctrls120.power_state.pwrStateResidencyTicks::UNDEFINED   2147483750                       # Cumulative time (in ticks) in various power states (Tick)
system.mem_ctrls121.power_state.pwrStateResidencyTicks::UNDEFINED   2147483750                       # Cumulative time (in ticks) in various power states (Tick)
system.mem_ctrls122.power_state.pwrStateResidencyTicks::UNDEFINED   2147483750                       # Cumulative time (in ticks) in various power states (Tick)
system.mem_ctrls123.power_state.pwrStateResidencyTicks::UNDEFINED   2147483750                       # Cumulative time (in ticks) in various power states (Tick)
system.mem_ctrls124.power_state.pwrStateResidencyTicks::UNDEFINED   2147483750                       # Cumulative time (in ticks) in various power states (Tick)
system.mem_ctrls125.power_state.pwrStateResidencyTicks::UNDEFINED   2147483750                       # Cumulative time (in ticks) in various power states (Tick)
system.mem_ctrls126.power_state.pwrStateResidencyTicks::UNDEFINED   2147483750                       # Cumulative time (in ticks) in various power states (Tick)
system.mem_ctrls127.power_state.pwrStateResidencyTicks::UNDEFINED   2147483750                       # Cumulative time (in ticks) in various power states (Tick)
system.mem_ctrls128.power_state.pwrStateResidencyTicks::UNDEFINED   2147483750                       # Cumulative time (in ticks) in various power states (Tick)
system.mem_ctrls129.power_state.pwrStateResidencyTicks::UNDEFINED   2147483750                       # Cumulative time (in ticks) in various power states (Tick)
system.mem_ctrls13.power_state.pwrStateResidencyTicks::UNDEFINED   2147483750                       # Cumulative time (in ticks) in various power states (Tick)
system.mem_ctrls130.power_state.pwrStateResidencyTicks::UNDEFINED   2147483750                       # Cumulative time (in ticks) in various power states (Tick)
system.mem_ctrls131.power_state.pwrStateResidencyTicks::UNDEFINED   2147483750                       # Cumulative time (in ticks) in various power states (Tick)
system.mem_ctrls132.power_state.pwrStateResidencyTicks::UNDEFINED   2147483750                       # Cumulative time (in ticks) in various power states (Tick)
system.mem_ctrls133.power_state.pwrStateResidencyTicks::UNDEFINED   2147483750                       # Cumulative time (in ticks) in various power states (Tick)
system.mem_ctrls134.power_state.pwrStateResidencyTicks::UNDEFINED   2147483750                       # Cumulative time (in ticks) in various power states (Tick)
system.mem_ctrls135.power_state.pwrStateResidencyTicks::UNDEFINED   2147483750                       # Cumulative time (in ticks) in various power states (Tick)
system.mem_ctrls136.power_state.pwrStateResidencyTicks::UNDEFINED   2147483750                       # Cumulative time (in ticks) in various power states (Tick)
system.mem_ctrls137.power_state.pwrStateResidencyTicks::UNDEFINED   2147483750                       # Cumulative time (in ticks) in various power states (Tick)
system.mem_ctrls138.power_state.pwrStateResidencyTicks::UNDEFINED   2147483750                       # Cumulative time (in ticks) in various power states (Tick)
system.mem_ctrls139.power_state.pwrStateResidencyTicks::UNDEFINED   2147483750                       # Cumulative time (in ticks) in various power states (Tick)
system.mem_ctrls14.power_state.pwrStateResidencyTicks::UNDEFINED   2147483750                       # Cumulative time (in ticks) in various power states (Tick)
system.mem_ctrls140.power_state.pwrStateResidencyTicks::UNDEFINED   2147483750                       # Cumulative time (in ticks) in various power states (Tick)
system.mem_ctrls141.power_state.pwrStateResidencyTicks::UNDEFINED   2147483750                       # Cumulative time (in ticks) in various power states (Tick)
system.mem_ctrls142.power_state.pwrStateResidencyTicks::UNDEFINED   2147483750                       # Cumulative time (in ticks) in various power states (Tick)
system.mem_ctrls143.power_state.pwrStateResidencyTicks::UNDEFINED   2147483750                       # Cumulative time (in ticks) in various power states (Tick)
system.mem_ctrls144.power_state.pwrStateResidencyTicks::UNDEFINED   2147483750                       # Cumulative time (in ticks) in various power states (Tick)
system.mem_ctrls145.power_state.pwrStateResidencyTicks::UNDEFINED   2147483750                       # Cumulative time (in ticks) in various power states (Tick)
system.mem_ctrls146.power_state.pwrStateResidencyTicks::UNDEFINED   2147483750                       # Cumulative time (in ticks) in various power states (Tick)
system.mem_ctrls147.power_state.pwrStateResidencyTicks::UNDEFINED   2147483750                       # Cumulative time (in ticks) in various power states (Tick)
system.mem_ctrls148.power_state.pwrStateResidencyTicks::UNDEFINED   2147483750                       # Cumulative time (in ticks) in various power states (Tick)
system.mem_ctrls149.power_state.pwrStateResidencyTicks::UNDEFINED   2147483750                       # Cumulative time (in ticks) in various power states (Tick)
system.mem_ctrls15.power_state.pwrStateResidencyTicks::UNDEFINED   2147483750                       # Cumulative time (in ticks) in various power states (Tick)
system.mem_ctrls150.power_state.pwrStateResidencyTicks::UNDEFINED   2147483750                       # Cumulative time (in ticks) in various power states (Tick)
system.mem_ctrls151.power_state.pwrStateResidencyTicks::UNDEFINED   2147483750                       # Cumulative time (in ticks) in various power states (Tick)
system.mem_ctrls152.power_state.pwrStateResidencyTicks::UNDEFINED   2147483750                       # Cumulative time (in ticks) in various power states (Tick)
system.mem_ctrls153.power_state.pwrStateResidencyTicks::UNDEFINED   2147483750                       # Cumulative time (in ticks) in various power states (Tick)
system.mem_ctrls154.power_state.pwrStateResidencyTicks::UNDEFINED   2147483750                       # Cumulative time (in ticks) in various power states (Tick)
system.mem_ctrls155.power_state.pwrStateResidencyTicks::UNDEFINED   2147483750                       # Cumulative time (in ticks) in various power states (Tick)
system.mem_ctrls156.power_state.pwrStateResidencyTicks::UNDEFINED   2147483750                       # Cumulative time (in ticks) in various power states (Tick)
system.mem_ctrls157.power_state.pwrStateResidencyTicks::UNDEFINED   2147483750                       # Cumulative time (in ticks) in various power states (Tick)
system.mem_ctrls158.power_state.pwrStateResidencyTicks::UNDEFINED   2147483750                       # Cumulative time (in ticks) in various power states (Tick)
system.mem_ctrls159.power_state.pwrStateResidencyTicks::UNDEFINED   2147483750                       # Cumulative time (in ticks) in various power states (Tick)
system.mem_ctrls16.power_state.pwrStateResidencyTicks::UNDEFINED   2147483750                       # Cumulative time (in ticks) in various power states (Tick)
system.mem_ctrls160.power_state.pwrStateResidencyTicks::UNDEFINED   2147483750                       # Cumulative time (in ticks) in various power states (Tick)
system.mem_ctrls161.power_state.pwrStateResidencyTicks::UNDEFINED   2147483750                       # Cumulative time (in ticks) in various power states (Tick)
system.mem_ctrls162.power_state.pwrStateResidencyTicks::UNDEFINED   2147483750                       # Cumulative time (in ticks) in various power states (Tick)
system.mem_ctrls163.power_state.pwrStateResidencyTicks::UNDEFINED   2147483750                       # Cumulative time (in ticks) in various power states (Tick)
system.mem_ctrls164.power_state.pwrStateResidencyTicks::UNDEFINED   2147483750                       # Cumulative time (in ticks) in various power states (Tick)
system.mem_ctrls165.power_state.pwrStateResidencyTicks::UNDEFINED   2147483750                       # Cumulative time (in ticks) in various power states (Tick)
system.mem_ctrls166.power_state.pwrStateResidencyTicks::UNDEFINED   2147483750                       # Cumulative time (in ticks) in various power states (Tick)
system.mem_ctrls167.power_state.pwrStateResidencyTicks::UNDEFINED   2147483750                       # Cumulative time (in ticks) in various power states (Tick)
system.mem_ctrls168.power_state.pwrStateResidencyTicks::UNDEFINED   2147483750                       # Cumulative time (in ticks) in various power states (Tick)
system.mem_ctrls169.power_state.pwrStateResidencyTicks::UNDEFINED   2147483750                       # Cumulative time (in ticks) in various power states (Tick)
system.mem_ctrls17.power_state.pwrStateResidencyTicks::UNDEFINED   2147483750                       # Cumulative time (in ticks) in various power states (Tick)
system.mem_ctrls170.power_state.pwrStateResidencyTicks::UNDEFINED   2147483750                       # Cumulative time (in ticks) in various power states (Tick)
system.mem_ctrls171.power_state.pwrStateResidencyTicks::UNDEFINED   2147483750                       # Cumulative time (in ticks) in various power states (Tick)
system.mem_ctrls172.power_state.pwrStateResidencyTicks::UNDEFINED   2147483750                       # Cumulative time (in ticks) in various power states (Tick)
system.mem_ctrls173.power_state.pwrStateResidencyTicks::UNDEFINED   2147483750                       # Cumulative time (in ticks) in various power states (Tick)
system.mem_ctrls174.power_state.pwrStateResidencyTicks::UNDEFINED   2147483750                       # Cumulative time (in ticks) in various power states (Tick)
system.mem_ctrls175.power_state.pwrStateResidencyTicks::UNDEFINED   2147483750                       # Cumulative time (in ticks) in various power states (Tick)
system.mem_ctrls176.power_state.pwrStateResidencyTicks::UNDEFINED   2147483750                       # Cumulative time (in ticks) in various power states (Tick)
system.mem_ctrls177.power_state.pwrStateResidencyTicks::UNDEFINED   2147483750                       # Cumulative time (in ticks) in various power states (Tick)
system.mem_ctrls178.power_state.pwrStateResidencyTicks::UNDEFINED   2147483750                       # Cumulative time (in ticks) in various power states (Tick)
system.mem_ctrls179.power_state.pwrStateResidencyTicks::UNDEFINED   2147483750                       # Cumulative time (in ticks) in various power states (Tick)
system.mem_ctrls18.power_state.pwrStateResidencyTicks::UNDEFINED   2147483750                       # Cumulative time (in ticks) in various power states (Tick)
system.mem_ctrls180.power_state.pwrStateResidencyTicks::UNDEFINED   2147483750                       # Cumulative time (in ticks) in various power states (Tick)
system.mem_ctrls181.power_state.pwrStateResidencyTicks::UNDEFINED   2147483750                       # Cumulative time (in ticks) in various power states (Tick)
system.mem_ctrls182.power_state.pwrStateResidencyTicks::UNDEFINED   2147483750                       # Cumulative time (in ticks) in various power states (Tick)
system.mem_ctrls183.power_state.pwrStateResidencyTicks::UNDEFINED   2147483750                       # Cumulative time (in ticks) in various power states (Tick)
system.mem_ctrls184.power_state.pwrStateResidencyTicks::UNDEFINED   2147483750                       # Cumulative time (in ticks) in various power states (Tick)
system.mem_ctrls185.power_state.pwrStateResidencyTicks::UNDEFINED   2147483750                       # Cumulative time (in ticks) in various power states (Tick)
system.mem_ctrls186.power_state.pwrStateResidencyTicks::UNDEFINED   2147483750                       # Cumulative time (in ticks) in various power states (Tick)
system.mem_ctrls187.power_state.pwrStateResidencyTicks::UNDEFINED   2147483750                       # Cumulative time (in ticks) in various power states (Tick)
system.mem_ctrls188.power_state.pwrStateResidencyTicks::UNDEFINED   2147483750                       # Cumulative time (in ticks) in various power states (Tick)
system.mem_ctrls189.power_state.pwrStateResidencyTicks::UNDEFINED   2147483750                       # Cumulative time (in ticks) in various power states (Tick)
system.mem_ctrls19.power_state.pwrStateResidencyTicks::UNDEFINED   2147483750                       # Cumulative time (in ticks) in various power states (Tick)
system.mem_ctrls190.power_state.pwrStateResidencyTicks::UNDEFINED   2147483750                       # Cumulative time (in ticks) in various power states (Tick)
system.mem_ctrls191.power_state.pwrStateResidencyTicks::UNDEFINED   2147483750                       # Cumulative time (in ticks) in various power states (Tick)
system.mem_ctrls192.power_state.pwrStateResidencyTicks::UNDEFINED   2147483750                       # Cumulative time (in ticks) in various power states (Tick)
system.mem_ctrls193.power_state.pwrStateResidencyTicks::UNDEFINED   2147483750                       # Cumulative time (in ticks) in various power states (Tick)
system.mem_ctrls194.power_state.pwrStateResidencyTicks::UNDEFINED   2147483750                       # Cumulative time (in ticks) in various power states (Tick)
system.mem_ctrls195.power_state.pwrStateResidencyTicks::UNDEFINED   2147483750                       # Cumulative time (in ticks) in various power states (Tick)
system.mem_ctrls196.power_state.pwrStateResidencyTicks::UNDEFINED   2147483750                       # Cumulative time (in ticks) in various power states (Tick)
system.mem_ctrls197.power_state.pwrStateResidencyTicks::UNDEFINED   2147483750                       # Cumulative time (in ticks) in various power states (Tick)
system.mem_ctrls198.power_state.pwrStateResidencyTicks::UNDEFINED   2147483750                       # Cumulative time (in ticks) in various power states (Tick)
system.mem_ctrls199.power_state.pwrStateResidencyTicks::UNDEFINED   2147483750                       # Cumulative time (in ticks) in various power states (Tick)
system.mem_ctrls2.power_state.pwrStateResidencyTicks::UNDEFINED   2147483750                       # Cumulative time (in ticks) in various power states (Tick)
system.mem_ctrls20.power_state.pwrStateResidencyTicks::UNDEFINED   2147483750                       # Cumulative time (in ticks) in various power states (Tick)
system.mem_ctrls200.power_state.pwrStateResidencyTicks::UNDEFINED   2147483750                       # Cumulative time (in ticks) in various power states (Tick)
system.mem_ctrls201.power_state.pwrStateResidencyTicks::UNDEFINED   2147483750                       # Cumulative time (in ticks) in various power states (Tick)
system.mem_ctrls202.power_state.pwrStateResidencyTicks::UNDEFINED   2147483750                       # Cumulative time (in ticks) in various power states (Tick)
system.mem_ctrls203.power_state.pwrStateResidencyTicks::UNDEFINED   2147483750                       # Cumulative time (in ticks) in various power states (Tick)
system.mem_ctrls204.power_state.pwrStateResidencyTicks::UNDEFINED   2147483750                       # Cumulative time (in ticks) in various power states (Tick)
system.mem_ctrls205.power_state.pwrStateResidencyTicks::UNDEFINED   2147483750                       # Cumulative time (in ticks) in various power states (Tick)
system.mem_ctrls206.power_state.pwrStateResidencyTicks::UNDEFINED   2147483750                       # Cumulative time (in ticks) in various power states (Tick)
system.mem_ctrls207.power_state.pwrStateResidencyTicks::UNDEFINED   2147483750                       # Cumulative time (in ticks) in various power states (Tick)
system.mem_ctrls208.power_state.pwrStateResidencyTicks::UNDEFINED   2147483750                       # Cumulative time (in ticks) in various power states (Tick)
system.mem_ctrls209.power_state.pwrStateResidencyTicks::UNDEFINED   2147483750                       # Cumulative time (in ticks) in various power states (Tick)
system.mem_ctrls21.power_state.pwrStateResidencyTicks::UNDEFINED   2147483750                       # Cumulative time (in ticks) in various power states (Tick)
system.mem_ctrls210.power_state.pwrStateResidencyTicks::UNDEFINED   2147483750                       # Cumulative time (in ticks) in various power states (Tick)
system.mem_ctrls211.power_state.pwrStateResidencyTicks::UNDEFINED   2147483750                       # Cumulative time (in ticks) in various power states (Tick)
system.mem_ctrls212.power_state.pwrStateResidencyTicks::UNDEFINED   2147483750                       # Cumulative time (in ticks) in various power states (Tick)
system.mem_ctrls213.power_state.pwrStateResidencyTicks::UNDEFINED   2147483750                       # Cumulative time (in ticks) in various power states (Tick)
system.mem_ctrls214.power_state.pwrStateResidencyTicks::UNDEFINED   2147483750                       # Cumulative time (in ticks) in various power states (Tick)
system.mem_ctrls215.power_state.pwrStateResidencyTicks::UNDEFINED   2147483750                       # Cumulative time (in ticks) in various power states (Tick)
system.mem_ctrls216.power_state.pwrStateResidencyTicks::UNDEFINED   2147483750                       # Cumulative time (in ticks) in various power states (Tick)
system.mem_ctrls217.power_state.pwrStateResidencyTicks::UNDEFINED   2147483750                       # Cumulative time (in ticks) in various power states (Tick)
system.mem_ctrls218.power_state.pwrStateResidencyTicks::UNDEFINED   2147483750                       # Cumulative time (in ticks) in various power states (Tick)
system.mem_ctrls219.power_state.pwrStateResidencyTicks::UNDEFINED   2147483750                       # Cumulative time (in ticks) in various power states (Tick)
system.mem_ctrls22.power_state.pwrStateResidencyTicks::UNDEFINED   2147483750                       # Cumulative time (in ticks) in various power states (Tick)
system.mem_ctrls220.power_state.pwrStateResidencyTicks::UNDEFINED   2147483750                       # Cumulative time (in ticks) in various power states (Tick)
system.mem_ctrls221.power_state.pwrStateResidencyTicks::UNDEFINED   2147483750                       # Cumulative time (in ticks) in various power states (Tick)
system.mem_ctrls222.power_state.pwrStateResidencyTicks::UNDEFINED   2147483750                       # Cumulative time (in ticks) in various power states (Tick)
system.mem_ctrls223.power_state.pwrStateResidencyTicks::UNDEFINED   2147483750                       # Cumulative time (in ticks) in various power states (Tick)
system.mem_ctrls224.power_state.pwrStateResidencyTicks::UNDEFINED   2147483750                       # Cumulative time (in ticks) in various power states (Tick)
system.mem_ctrls225.power_state.pwrStateResidencyTicks::UNDEFINED   2147483750                       # Cumulative time (in ticks) in various power states (Tick)
system.mem_ctrls226.power_state.pwrStateResidencyTicks::UNDEFINED   2147483750                       # Cumulative time (in ticks) in various power states (Tick)
system.mem_ctrls227.power_state.pwrStateResidencyTicks::UNDEFINED   2147483750                       # Cumulative time (in ticks) in various power states (Tick)
system.mem_ctrls228.power_state.pwrStateResidencyTicks::UNDEFINED   2147483750                       # Cumulative time (in ticks) in various power states (Tick)
system.mem_ctrls229.power_state.pwrStateResidencyTicks::UNDEFINED   2147483750                       # Cumulative time (in ticks) in various power states (Tick)
system.mem_ctrls23.power_state.pwrStateResidencyTicks::UNDEFINED   2147483750                       # Cumulative time (in ticks) in various power states (Tick)
system.mem_ctrls230.power_state.pwrStateResidencyTicks::UNDEFINED   2147483750                       # Cumulative time (in ticks) in various power states (Tick)
system.mem_ctrls231.power_state.pwrStateResidencyTicks::UNDEFINED   2147483750                       # Cumulative time (in ticks) in various power states (Tick)
system.mem_ctrls232.power_state.pwrStateResidencyTicks::UNDEFINED   2147483750                       # Cumulative time (in ticks) in various power states (Tick)
system.mem_ctrls233.power_state.pwrStateResidencyTicks::UNDEFINED   2147483750                       # Cumulative time (in ticks) in various power states (Tick)
system.mem_ctrls234.power_state.pwrStateResidencyTicks::UNDEFINED   2147483750                       # Cumulative time (in ticks) in various power states (Tick)
system.mem_ctrls235.power_state.pwrStateResidencyTicks::UNDEFINED   2147483750                       # Cumulative time (in ticks) in various power states (Tick)
system.mem_ctrls236.power_state.pwrStateResidencyTicks::UNDEFINED   2147483750                       # Cumulative time (in ticks) in various power states (Tick)
system.mem_ctrls237.power_state.pwrStateResidencyTicks::UNDEFINED   2147483750                       # Cumulative time (in ticks) in various power states (Tick)
system.mem_ctrls238.power_state.pwrStateResidencyTicks::UNDEFINED   2147483750                       # Cumulative time (in ticks) in various power states (Tick)
system.mem_ctrls239.power_state.pwrStateResidencyTicks::UNDEFINED   2147483750                       # Cumulative time (in ticks) in various power states (Tick)
system.mem_ctrls24.power_state.pwrStateResidencyTicks::UNDEFINED   2147483750                       # Cumulative time (in ticks) in various power states (Tick)
system.mem_ctrls240.power_state.pwrStateResidencyTicks::UNDEFINED   2147483750                       # Cumulative time (in ticks) in various power states (Tick)
system.mem_ctrls241.power_state.pwrStateResidencyTicks::UNDEFINED   2147483750                       # Cumulative time (in ticks) in various power states (Tick)
system.mem_ctrls242.power_state.pwrStateResidencyTicks::UNDEFINED   2147483750                       # Cumulative time (in ticks) in various power states (Tick)
system.mem_ctrls243.power_state.pwrStateResidencyTicks::UNDEFINED   2147483750                       # Cumulative time (in ticks) in various power states (Tick)
system.mem_ctrls244.power_state.pwrStateResidencyTicks::UNDEFINED   2147483750                       # Cumulative time (in ticks) in various power states (Tick)
system.mem_ctrls245.power_state.pwrStateResidencyTicks::UNDEFINED   2147483750                       # Cumulative time (in ticks) in various power states (Tick)
system.mem_ctrls246.power_state.pwrStateResidencyTicks::UNDEFINED   2147483750                       # Cumulative time (in ticks) in various power states (Tick)
system.mem_ctrls247.power_state.pwrStateResidencyTicks::UNDEFINED   2147483750                       # Cumulative time (in ticks) in various power states (Tick)
system.mem_ctrls248.power_state.pwrStateResidencyTicks::UNDEFINED   2147483750                       # Cumulative time (in ticks) in various power states (Tick)
system.mem_ctrls249.power_state.pwrStateResidencyTicks::UNDEFINED   2147483750                       # Cumulative time (in ticks) in various power states (Tick)
system.mem_ctrls25.power_state.pwrStateResidencyTicks::UNDEFINED   2147483750                       # Cumulative time (in ticks) in various power states (Tick)
system.mem_ctrls250.power_state.pwrStateResidencyTicks::UNDEFINED   2147483750                       # Cumulative time (in ticks) in various power states (Tick)
system.mem_ctrls251.power_state.pwrStateResidencyTicks::UNDEFINED   2147483750                       # Cumulative time (in ticks) in various power states (Tick)
system.mem_ctrls252.power_state.pwrStateResidencyTicks::UNDEFINED   2147483750                       # Cumulative time (in ticks) in various power states (Tick)
system.mem_ctrls253.power_state.pwrStateResidencyTicks::UNDEFINED   2147483750                       # Cumulative time (in ticks) in various power states (Tick)
system.mem_ctrls254.power_state.pwrStateResidencyTicks::UNDEFINED   2147483750                       # Cumulative time (in ticks) in various power states (Tick)
system.mem_ctrls255.power_state.pwrStateResidencyTicks::UNDEFINED   2147483750                       # Cumulative time (in ticks) in various power states (Tick)
system.mem_ctrls26.power_state.pwrStateResidencyTicks::UNDEFINED   2147483750                       # Cumulative time (in ticks) in various power states (Tick)
system.mem_ctrls27.power_state.pwrStateResidencyTicks::UNDEFINED   2147483750                       # Cumulative time (in ticks) in various power states (Tick)
system.mem_ctrls28.power_state.pwrStateResidencyTicks::UNDEFINED   2147483750                       # Cumulative time (in ticks) in various power states (Tick)
system.mem_ctrls29.power_state.pwrStateResidencyTicks::UNDEFINED   2147483750                       # Cumulative time (in ticks) in various power states (Tick)
system.mem_ctrls3.power_state.pwrStateResidencyTicks::UNDEFINED   2147483750                       # Cumulative time (in ticks) in various power states (Tick)
system.mem_ctrls30.power_state.pwrStateResidencyTicks::UNDEFINED   2147483750                       # Cumulative time (in ticks) in various power states (Tick)
system.mem_ctrls31.power_state.pwrStateResidencyTicks::UNDEFINED   2147483750                       # Cumulative time (in ticks) in various power states (Tick)
system.mem_ctrls32.power_state.pwrStateResidencyTicks::UNDEFINED   2147483750                       # Cumulative time (in ticks) in various power states (Tick)
system.mem_ctrls33.power_state.pwrStateResidencyTicks::UNDEFINED   2147483750                       # Cumulative time (in ticks) in various power states (Tick)
system.mem_ctrls34.power_state.pwrStateResidencyTicks::UNDEFINED   2147483750                       # Cumulative time (in ticks) in various power states (Tick)
system.mem_ctrls35.power_state.pwrStateResidencyTicks::UNDEFINED   2147483750                       # Cumulative time (in ticks) in various power states (Tick)
system.mem_ctrls36.power_state.pwrStateResidencyTicks::UNDEFINED   2147483750                       # Cumulative time (in ticks) in various power states (Tick)
system.mem_ctrls37.power_state.pwrStateResidencyTicks::UNDEFINED   2147483750                       # Cumulative time (in ticks) in various power states (Tick)
system.mem_ctrls38.power_state.pwrStateResidencyTicks::UNDEFINED   2147483750                       # Cumulative time (in ticks) in various power states (Tick)
system.mem_ctrls39.power_state.pwrStateResidencyTicks::UNDEFINED   2147483750                       # Cumulative time (in ticks) in various power states (Tick)
system.mem_ctrls4.power_state.pwrStateResidencyTicks::UNDEFINED   2147483750                       # Cumulative time (in ticks) in various power states (Tick)
system.mem_ctrls40.power_state.pwrStateResidencyTicks::UNDEFINED   2147483750                       # Cumulative time (in ticks) in various power states (Tick)
system.mem_ctrls41.power_state.pwrStateResidencyTicks::UNDEFINED   2147483750                       # Cumulative time (in ticks) in various power states (Tick)
system.mem_ctrls42.power_state.pwrStateResidencyTicks::UNDEFINED   2147483750                       # Cumulative time (in ticks) in various power states (Tick)
system.mem_ctrls43.power_state.pwrStateResidencyTicks::UNDEFINED   2147483750                       # Cumulative time (in ticks) in various power states (Tick)
system.mem_ctrls44.power_state.pwrStateResidencyTicks::UNDEFINED   2147483750                       # Cumulative time (in ticks) in various power states (Tick)
system.mem_ctrls45.power_state.pwrStateResidencyTicks::UNDEFINED   2147483750                       # Cumulative time (in ticks) in various power states (Tick)
system.mem_ctrls46.power_state.pwrStateResidencyTicks::UNDEFINED   2147483750                       # Cumulative time (in ticks) in various power states (Tick)
system.mem_ctrls47.power_state.pwrStateResidencyTicks::UNDEFINED   2147483750                       # Cumulative time (in ticks) in various power states (Tick)
system.mem_ctrls48.power_state.pwrStateResidencyTicks::UNDEFINED   2147483750                       # Cumulative time (in ticks) in various power states (Tick)
system.mem_ctrls49.power_state.pwrStateResidencyTicks::UNDEFINED   2147483750                       # Cumulative time (in ticks) in various power states (Tick)
system.mem_ctrls5.power_state.pwrStateResidencyTicks::UNDEFINED   2147483750                       # Cumulative time (in ticks) in various power states (Tick)
system.mem_ctrls50.power_state.pwrStateResidencyTicks::UNDEFINED   2147483750                       # Cumulative time (in ticks) in various power states (Tick)
system.mem_ctrls51.power_state.pwrStateResidencyTicks::UNDEFINED   2147483750                       # Cumulative time (in ticks) in various power states (Tick)
system.mem_ctrls52.power_state.pwrStateResidencyTicks::UNDEFINED   2147483750                       # Cumulative time (in ticks) in various power states (Tick)
system.mem_ctrls53.power_state.pwrStateResidencyTicks::UNDEFINED   2147483750                       # Cumulative time (in ticks) in various power states (Tick)
system.mem_ctrls54.power_state.pwrStateResidencyTicks::UNDEFINED   2147483750                       # Cumulative time (in ticks) in various power states (Tick)
system.mem_ctrls55.power_state.pwrStateResidencyTicks::UNDEFINED   2147483750                       # Cumulative time (in ticks) in various power states (Tick)
system.mem_ctrls56.power_state.pwrStateResidencyTicks::UNDEFINED   2147483750                       # Cumulative time (in ticks) in various power states (Tick)
system.mem_ctrls57.power_state.pwrStateResidencyTicks::UNDEFINED   2147483750                       # Cumulative time (in ticks) in various power states (Tick)
system.mem_ctrls58.power_state.pwrStateResidencyTicks::UNDEFINED   2147483750                       # Cumulative time (in ticks) in various power states (Tick)
system.mem_ctrls59.power_state.pwrStateResidencyTicks::UNDEFINED   2147483750                       # Cumulative time (in ticks) in various power states (Tick)
system.mem_ctrls6.power_state.pwrStateResidencyTicks::UNDEFINED   2147483750                       # Cumulative time (in ticks) in various power states (Tick)
system.mem_ctrls60.power_state.pwrStateResidencyTicks::UNDEFINED   2147483750                       # Cumulative time (in ticks) in various power states (Tick)
system.mem_ctrls61.power_state.pwrStateResidencyTicks::UNDEFINED   2147483750                       # Cumulative time (in ticks) in various power states (Tick)
system.mem_ctrls62.power_state.pwrStateResidencyTicks::UNDEFINED   2147483750                       # Cumulative time (in ticks) in various power states (Tick)
system.mem_ctrls63.power_state.pwrStateResidencyTicks::UNDEFINED   2147483750                       # Cumulative time (in ticks) in various power states (Tick)
system.mem_ctrls64.power_state.pwrStateResidencyTicks::UNDEFINED   2147483750                       # Cumulative time (in ticks) in various power states (Tick)
system.mem_ctrls65.power_state.pwrStateResidencyTicks::UNDEFINED   2147483750                       # Cumulative time (in ticks) in various power states (Tick)
system.mem_ctrls66.power_state.pwrStateResidencyTicks::UNDEFINED   2147483750                       # Cumulative time (in ticks) in various power states (Tick)
system.mem_ctrls67.power_state.pwrStateResidencyTicks::UNDEFINED   2147483750                       # Cumulative time (in ticks) in various power states (Tick)
system.mem_ctrls68.power_state.pwrStateResidencyTicks::UNDEFINED   2147483750                       # Cumulative time (in ticks) in various power states (Tick)
system.mem_ctrls69.power_state.pwrStateResidencyTicks::UNDEFINED   2147483750                       # Cumulative time (in ticks) in various power states (Tick)
system.mem_ctrls7.power_state.pwrStateResidencyTicks::UNDEFINED   2147483750                       # Cumulative time (in ticks) in various power states (Tick)
system.mem_ctrls70.power_state.pwrStateResidencyTicks::UNDEFINED   2147483750                       # Cumulative time (in ticks) in various power states (Tick)
system.mem_ctrls71.power_state.pwrStateResidencyTicks::UNDEFINED   2147483750                       # Cumulative time (in ticks) in various power states (Tick)
system.mem_ctrls72.power_state.pwrStateResidencyTicks::UNDEFINED   2147483750                       # Cumulative time (in ticks) in various power states (Tick)
system.mem_ctrls73.power_state.pwrStateResidencyTicks::UNDEFINED   2147483750                       # Cumulative time (in ticks) in various power states (Tick)
system.mem_ctrls74.power_state.pwrStateResidencyTicks::UNDEFINED   2147483750                       # Cumulative time (in ticks) in various power states (Tick)
system.mem_ctrls75.power_state.pwrStateResidencyTicks::UNDEFINED   2147483750                       # Cumulative time (in ticks) in various power states (Tick)
system.mem_ctrls76.power_state.pwrStateResidencyTicks::UNDEFINED   2147483750                       # Cumulative time (in ticks) in various power states (Tick)
system.mem_ctrls77.power_state.pwrStateResidencyTicks::UNDEFINED   2147483750                       # Cumulative time (in ticks) in various power states (Tick)
system.mem_ctrls78.power_state.pwrStateResidencyTicks::UNDEFINED   2147483750                       # Cumulative time (in ticks) in various power states (Tick)
system.mem_ctrls79.power_state.pwrStateResidencyTicks::UNDEFINED   2147483750                       # Cumulative time (in ticks) in various power states (Tick)
system.mem_ctrls8.power_state.pwrStateResidencyTicks::UNDEFINED   2147483750                       # Cumulative time (in ticks) in various power states (Tick)
system.mem_ctrls80.power_state.pwrStateResidencyTicks::UNDEFINED   2147483750                       # Cumulative time (in ticks) in various power states (Tick)
system.mem_ctrls81.power_state.pwrStateResidencyTicks::UNDEFINED   2147483750                       # Cumulative time (in ticks) in various power states (Tick)
system.mem_ctrls82.power_state.pwrStateResidencyTicks::UNDEFINED   2147483750                       # Cumulative time (in ticks) in various power states (Tick)
system.mem_ctrls83.power_state.pwrStateResidencyTicks::UNDEFINED   2147483750                       # Cumulative time (in ticks) in various power states (Tick)
system.mem_ctrls84.power_state.pwrStateResidencyTicks::UNDEFINED   2147483750                       # Cumulative time (in ticks) in various power states (Tick)
system.mem_ctrls85.power_state.pwrStateResidencyTicks::UNDEFINED   2147483750                       # Cumulative time (in ticks) in various power states (Tick)
system.mem_ctrls86.power_state.pwrStateResidencyTicks::UNDEFINED   2147483750                       # Cumulative time (in ticks) in various power states (Tick)
system.mem_ctrls87.power_state.pwrStateResidencyTicks::UNDEFINED   2147483750                       # Cumulative time (in ticks) in various power states (Tick)
system.mem_ctrls88.power_state.pwrStateResidencyTicks::UNDEFINED   2147483750                       # Cumulative time (in ticks) in various power states (Tick)
system.mem_ctrls89.power_state.pwrStateResidencyTicks::UNDEFINED   2147483750                       # Cumulative time (in ticks) in various power states (Tick)
system.mem_ctrls9.power_state.pwrStateResidencyTicks::UNDEFINED   2147483750                       # Cumulative time (in ticks) in various power states (Tick)
system.mem_ctrls90.power_state.pwrStateResidencyTicks::UNDEFINED   2147483750                       # Cumulative time (in ticks) in various power states (Tick)
system.mem_ctrls91.power_state.pwrStateResidencyTicks::UNDEFINED   2147483750                       # Cumulative time (in ticks) in various power states (Tick)
system.mem_ctrls92.power_state.pwrStateResidencyTicks::UNDEFINED   2147483750                       # Cumulative time (in ticks) in various power states (Tick)
system.mem_ctrls93.power_state.pwrStateResidencyTicks::UNDEFINED   2147483750                       # Cumulative time (in ticks) in various power states (Tick)
system.mem_ctrls94.power_state.pwrStateResidencyTicks::UNDEFINED   2147483750                       # Cumulative time (in ticks) in various power states (Tick)
system.mem_ctrls95.power_state.pwrStateResidencyTicks::UNDEFINED   2147483750                       # Cumulative time (in ticks) in various power states (Tick)
system.mem_ctrls96.power_state.pwrStateResidencyTicks::UNDEFINED   2147483750                       # Cumulative time (in ticks) in various power states (Tick)
system.mem_ctrls97.power_state.pwrStateResidencyTicks::UNDEFINED   2147483750                       # Cumulative time (in ticks) in various power states (Tick)
system.mem_ctrls98.power_state.pwrStateResidencyTicks::UNDEFINED   2147483750                       # Cumulative time (in ticks) in various power states (Tick)
system.mem_ctrls99.power_state.pwrStateResidencyTicks::UNDEFINED   2147483750                       # Cumulative time (in ticks) in various power states (Tick)
system.ruby.m_outstandReqHistSeqr::bucket_size            1                       (Unspecified)
system.ruby.m_outstandReqHistSeqr::max_bucket            9                       (Unspecified)
system.ruby.m_outstandReqHistSeqr::samples     16476573                       (Unspecified)
system.ruby.m_outstandReqHistSeqr::mean             1                       (Unspecified)
system.ruby.m_outstandReqHistSeqr::gmean            1                       (Unspecified)
system.ruby.m_outstandReqHistSeqr        |           0      0.00%      0.00% |    16476573    100.00%    100.00% |           0      0.00%    100.00% |           0      0.00%    100.00% |           0      0.00%    100.00% |           0      0.00%    100.00% |           0      0.00%    100.00% |           0      0.00%    100.00% |           0      0.00%    100.00% |           0      0.00%    100.00% (Unspecified)
system.ruby.m_outstandReqHistSeqr::total     16476573                       (Unspecified)
system.ruby.m_latencyHistSeqr::bucket_size            1                       (Unspecified)
system.ruby.m_latencyHistSeqr::max_bucket            9                       (Unspecified)
system.ruby.m_latencyHistSeqr::samples       16476572                       (Unspecified)
system.ruby.m_latencyHistSeqr::mean                 1                       (Unspecified)
system.ruby.m_latencyHistSeqr::gmean                1                       (Unspecified)
system.ruby.m_latencyHistSeqr            |           0      0.00%      0.00% |    16476572    100.00%    100.00% |           0      0.00%    100.00% |           0      0.00%    100.00% |           0      0.00%    100.00% |           0      0.00%    100.00% |           0      0.00%    100.00% |           0      0.00%    100.00% |           0      0.00%    100.00% |           0      0.00%    100.00% (Unspecified)
system.ruby.m_latencyHistSeqr::total         16476572                       (Unspecified)
system.ruby.m_hitLatencyHistSeqr::bucket_size            1                       (Unspecified)
system.ruby.m_hitLatencyHistSeqr::max_bucket            9                       (Unspecified)
system.ruby.m_hitLatencyHistSeqr::samples     16476572                       (Unspecified)
system.ruby.m_hitLatencyHistSeqr::mean              1                       (Unspecified)
system.ruby.m_hitLatencyHistSeqr::gmean             1                       (Unspecified)
system.ruby.m_hitLatencyHistSeqr         |           0      0.00%      0.00% |    16476572    100.00%    100.00% |           0      0.00%    100.00% |           0      0.00%    100.00% |           0      0.00%    100.00% |           0      0.00%    100.00% |           0      0.00%    100.00% |           0      0.00%    100.00% |           0      0.00%    100.00% |           0      0.00%    100.00% (Unspecified)
system.ruby.m_hitLatencyHistSeqr::total      16476572                       (Unspecified)
system.ruby.Directory_Controller.Receive_Request |       21149      0.39%      0.39% |       21433      0.39%      0.78% |       21302      0.39%      1.16% |       21462      0.39%      1.55% |       21557      0.39%      1.95% |       21564      0.39%      2.34% |       21207      0.39%      2.73% |       21356      0.39%      3.12% |       21231      0.39%      3.50% |       21294      0.39%      3.89% |       21421      0.39%      4.28% |       21485      0.39%      4.67% |       21683      0.39%      5.07% |       21731      0.40%      5.46% |       21440      0.39%      5.85% |       21662      0.39%      6.25% |       21309      0.39%      6.64% |       21327      0.39%      7.02% |       21617      0.39%      7.42% |       21405      0.39%      7.81% |       21362      0.39%      8.20% |       21460      0.39%      8.59% |       21359      0.39%      8.98% |       21445      0.39%      9.37% |       21435      0.39%      9.76% |       21337      0.39%     10.15% |       21361      0.39%     10.54% |       21481      0.39%     10.93% |       21517      0.39%     11.32% |       21446      0.39%     11.71% |       21500      0.39%     12.10% |       21349      0.39%     12.49% |       21750      0.40%     12.89% |       21188      0.39%     13.27% |       21574      0.39%     13.67% |       21380      0.39%     14.05% |       21533      0.39%     14.45% |       21318      0.39%     14.84% |       21498      0.39%     15.23% |       21446      0.39%     15.62% |       21177      0.39%     16.00% |       21533      0.39%     16.40% |       21176      0.39%     16.78% |       21675      0.39%     17.18% |       21808      0.40%     17.57% |       21704      0.40%     17.97% |       21541      0.39%     18.36% |       21383      0.39%     18.75% |       21190      0.39%     19.14% |       21565      0.39%     19.53% |       21547      0.39%     19.92% |       21410      0.39%     20.31% |       21290      0.39%     20.70% |       21364      0.39%     21.09% |       21415      0.39%     21.48% |       21497      0.39%     21.87% |       21297      0.39%     22.26% |       21438      0.39%     22.65% |       21402      0.39%     23.04% |       21336      0.39%     23.43% |       21311      0.39%     23.82% |       21360      0.39%     24.21% |       21496      0.39%     24.60% |       21686      0.40%     24.99% |       21272      0.39%     25.38% |       21472      0.39%     25.77% |       21443      0.39%     26.16% |       21403      0.39%     26.55% |       21578      0.39%     26.94% |       21649      0.39%     27.34% |       21506      0.39%     27.73% |       21398      0.39%     28.12% |       21538      0.39%     28.51% |       21404      0.39%     28.90% |       21500      0.39%     29.29% |       21585      0.39%     29.69% |       21622      0.39%     30.08% |       21525      0.39%     30.47% |       21262      0.39%     30.86% |       21482      0.39%     31.25% |       21193      0.39%     31.64% |       21387      0.39%     32.03% |       21446      0.39%     32.42% |       21538      0.39%     32.81% |       21203      0.39%     33.20% |       21801      0.40%     33.59% |       21570      0.39%     33.99% |       21385      0.39%     34.38% |       21253      0.39%     34.76% |       21322      0.39%     35.15% |       21458      0.39%     35.54% |       21296      0.39%     35.93% |       21420      0.39%     36.32% |       21629      0.39%     36.71% |       21393      0.39%     37.10% |       21391      0.39%     37.49% |       21600      0.39%     37.89% |       21588      0.39%     38.28% |       21252      0.39%     38.67% |       21481      0.39%     39.06% |       21363      0.39%     39.45% |       21256      0.39%     39.84% |       21466      0.39%     40.23% |       21359      0.39%     40.62% |       21391      0.39%     41.00% |       21572      0.39%     41.40% |       21685      0.40%     41.79% |       21530      0.39%     42.18% |       21503      0.39%     42.58% |       21105      0.38%     42.96% |       21449      0.39%     43.35% |       21424      0.39%     43.74% |       21382      0.39%     44.13% |       21530      0.39%     44.52% |       21345      0.39%     44.91% |       21471      0.39%     45.30% |       21521      0.39%     45.70% |       21616      0.39%     46.09% |       21382      0.39%     46.48% |       21120      0.38%     46.86% |       21619      0.39%     47.26% |       21664      0.39%     47.65% |       21857      0.40%     48.05% |       21288      0.39%     48.44% |       21248      0.39%     48.82% |       21295      0.39%     49.21% |       21390      0.39%     49.60% |       21384      0.39%     49.99% |       21362      0.39%     50.38% |       21523      0.39%     50.77% |       21330      0.39%     51.16% |       21376      0.39%     51.55% |       21347      0.39%     51.94% |       21649      0.39%     52.33% |       21606      0.39%     52.73% |       21642      0.39%     53.12% |       21496      0.39%     53.51% |       21384      0.39%     53.90% |       21317      0.39%     54.29% |       21491      0.39%     54.68% |       21404      0.39%     55.07% |       21762      0.40%     55.47% |       21681      0.39%     55.86% |       21737      0.40%     56.26% |       21490      0.39%     56.65% |       21567      0.39%     57.04% |       21526      0.39%     57.44% |       21420      0.39%     57.83% |       21427      0.39%     58.22% |       21275      0.39%     58.60% |       21400      0.39%     58.99% |       21496      0.39%     59.39% |       21291      0.39%     59.77% |       21278      0.39%     60.16% |       21579      0.39%     60.55% |       21235      0.39%     60.94% |       21651      0.39%     61.34% |       21473      0.39%     61.73% |       21601      0.39%     62.12% |       21406      0.39%     62.51% |       21529      0.39%     62.90% |       21284      0.39%     63.29% |       21406      0.39%     63.68% |       21505      0.39%     64.07% |       21347      0.39%     64.46% |       21525      0.39%     64.85% |       21397      0.39%     65.24% |       21491      0.39%     65.63% |       21506      0.39%     66.03% |       21474      0.39%     66.42% |       21445      0.39%     66.81% |       21366      0.39%     67.20% |       21544      0.39%     67.59% |       21222      0.39%     67.98% |       21346      0.39%     68.36% |       21538      0.39%     68.76% |       21426      0.39%     69.15% |       21528      0.39%     69.54% |       21499      0.39%     69.93% |       21411      0.39%     70.32% |       21448      0.39%     70.71% |       21365      0.39%     71.10% |       21507      0.39%     71.49% |       21377      0.39%     71.88% |       21426      0.39%     72.27% |       21493      0.39%     72.66% |       21544      0.39%     73.06% |       21245      0.39%     73.44% |       21388      0.39%     73.83% |       21245      0.39%     74.22% |       21528      0.39%     74.61% |       21515      0.39%     75.00% |       21059      0.38%     75.39% |       21287      0.39%     75.78% |       21570      0.39%     76.17% |       21517      0.39%     76.56% |       21334      0.39%     76.95% |       21750      0.40%     77.35% |       21443      0.39%     77.74% |       21394      0.39%     78.13% |       21600      0.39%     78.52% |       21420      0.39%     78.91% |       21367      0.39%     79.30% |       21417      0.39%     79.69% |       21498      0.39%     80.08% |       21411      0.39%     80.47% |       21515      0.39%     80.86% |       21466      0.39%     81.25% |       21382      0.39%     81.64% |       21283      0.39%     82.03% |       21475      0.39%     82.42% |       21435      0.39%     82.81% |       21570      0.39%     83.20% |       21417      0.39%     83.59% |       21482      0.39%     83.99% |       21191      0.39%     84.37% |       21605      0.39%     84.77% |       21489      0.39%     85.16% |       21270      0.39%     85.54% |       21256      0.39%     85.93% |       21578      0.39%     86.32% |       21280      0.39%     86.71% |       21444      0.39%     87.10% |       21487      0.39%     87.49% |       21782      0.40%     87.89% |       21672      0.39%     88.29% |       21689      0.40%     88.68% |       21551      0.39%     89.07% |       21336      0.39%     89.46% |       21210      0.39%     89.85% |       21423      0.39%     90.24% |       21274      0.39%     90.63% |       21608      0.39%     91.02% |       21212      0.39%     91.41% |       21482      0.39%     91.80% |       21545      0.39%     92.19% |       21295      0.39%     92.58% |       21358      0.39%     92.97% |       21371      0.39%     93.36% |       21356      0.39%     93.75% |       21551      0.39%     94.14% |       21648      0.39%     94.53% |       21044      0.38%     94.92% |       21353      0.39%     95.30% |       21558      0.39%     95.70% |       21525      0.39%     96.09% |       21517      0.39%     96.48% |       21514      0.39%     96.87% |       21317      0.39%     97.26% |       21425      0.39%     97.65% |       21385      0.39%     98.04% |       21414      0.39%     98.43% |       21604      0.39%     98.83% |       21577      0.39%     99.22% |       21452      0.39%     99.61% |       21475      0.39%    100.00% (Unspecified)
system.ruby.Directory_Controller.Receive_Request::total      5489742                       (Unspecified)
system.ruby.Directory_Controller.Receive_Forward |       21517      0.39%      0.39% |       21671      0.39%      0.79% |       21370      0.39%      1.18% |       21333      0.39%      1.56% |       21755      0.40%      1.96% |       21463      0.39%      2.35% |       21272      0.39%      2.74% |       21434      0.39%      3.13% |       21550      0.39%      3.52% |       21549      0.39%      3.91% |       21600      0.39%      4.31% |       21556      0.39%      4.70% |       21531      0.39%      5.09% |       21513      0.39%      5.48% |       21491      0.39%      5.87% |       21466      0.39%      6.26% |       21786      0.40%      6.66% |       21382      0.39%      7.05% |       21598      0.39%      7.44% |       21323      0.39%      7.83% |       21402      0.39%      8.22% |       21277      0.39%      8.61% |       21461      0.39%      9.00% |       21180      0.39%      9.39% |       21455      0.39%      9.78% |       21637      0.39%     10.17% |       21330      0.39%     10.56% |       21736      0.40%     10.95% |       21647      0.39%     11.35% |       21486      0.39%     11.74% |       21425      0.39%     12.13% |       21211      0.39%     12.52% |       21441      0.39%     12.91% |       21503      0.39%     13.30% |       21500      0.39%     13.69% |       21700      0.40%     14.08% |       21427      0.39%     14.47% |       21508      0.39%     14.87% |       21456      0.39%     15.26% |       21361      0.39%     15.65% |       21465      0.39%     16.04% |       21289      0.39%     16.42% |       21618      0.39%     16.82% |       21834      0.40%     17.22% |       21435      0.39%     17.61% |       21524      0.39%     18.00% |       21474      0.39%     18.39% |       21309      0.39%     18.78% |       21144      0.38%     19.16% |       21373      0.39%     19.55% |       21548      0.39%     19.94% |       21505      0.39%     20.33% |       21414      0.39%     20.72% |       21613      0.39%     21.12% |       21524      0.39%     21.51% |       21468      0.39%     21.90% |       21613      0.39%     22.29% |       21232      0.39%     22.68% |       21207      0.39%     23.07% |       21614      0.39%     23.46% |       21393      0.39%     23.85% |       21534      0.39%     24.24% |       21579      0.39%     24.63% |       21176      0.39%     25.02% |       21487      0.39%     25.41% |       21639      0.39%     25.81% |       21391      0.39%     26.19% |       21393      0.39%     26.58% |       21555      0.39%     26.98% |       21434      0.39%     27.37% |       21678      0.39%     27.76% |       21487      0.39%     28.15% |       21372      0.39%     28.54% |       21272      0.39%     28.93% |       21272      0.39%     29.32% |       21272      0.39%     29.70% |       21352      0.39%     30.09% |       21653      0.39%     30.49% |       21466      0.39%     30.88% |       21428      0.39%     31.27% |       21447      0.39%     31.66% |       21264      0.39%     32.05% |       21639      0.39%     32.44% |       21231      0.39%     32.83% |       21408      0.39%     33.22% |       21652      0.39%     33.61% |       21484      0.39%     34.00% |       21379      0.39%     34.39% |       21434      0.39%     34.78% |       21737      0.40%     35.18% |       21359      0.39%     35.57% |       21333      0.39%     35.95% |       21500      0.39%     36.35% |       21581      0.39%     36.74% |       21610      0.39%     37.13% |       21419      0.39%     37.52% |       21594      0.39%     37.91% |       21373      0.39%     38.30% |       21447      0.39%     38.69% |       21423      0.39%     39.08% |       21709      0.40%     39.48% |       21546      0.39%     39.87% |       21679      0.39%     40.27% |       21310      0.39%     40.65% |       21519      0.39%     41.05% |       21385      0.39%     41.44% |       21455      0.39%     41.83% |       21661      0.39%     42.22% |       21430      0.39%     42.61% |       21250      0.39%     43.00% |       21428      0.39%     43.39% |       21280      0.39%     43.78% |       21395      0.39%     44.17% |       21617      0.39%     44.56% |       21456      0.39%     44.95% |       21186      0.39%     45.34% |       21432      0.39%     45.73% |       21355      0.39%     46.11% |       21451      0.39%     46.50% |       21709      0.40%     46.90% |       21385      0.39%     47.29% |       21368      0.39%     47.68% |       21497      0.39%     48.07% |       21500      0.39%     48.46% |       21321      0.39%     48.85% |       21703      0.40%     49.24% |       21308      0.39%     49.63% |       21210      0.39%     50.02% |       21224      0.39%     50.41% |       21450      0.39%     50.80% |       21436      0.39%     51.19% |       21496      0.39%     51.58% |       21411      0.39%     51.97% |       21260      0.39%     52.35% |       21490      0.39%     52.75% |       21369      0.39%     53.13% |       21537      0.39%     53.53% |       21466      0.39%     53.92% |       21596      0.39%     54.31% |       21592      0.39%     54.70% |       21347      0.39%     55.09% |       21566      0.39%     55.49% |       21450      0.39%     55.88% |       21228      0.39%     56.26% |       21234      0.39%     56.65% |       21586      0.39%     57.04% |       21526      0.39%     57.43% |       21458      0.39%     57.82% |       21202      0.39%     58.21% |       21396      0.39%     58.60% |       21587      0.39%     58.99% |       21532      0.39%     59.39% |       21533      0.39%     59.78% |       21380      0.39%     60.17% |       21633      0.39%     60.56% |       21603      0.39%     60.95% |       21435      0.39%     61.34% |       21631      0.39%     61.74% |       21540      0.39%     62.13% |       21265      0.39%     62.52% |       21644      0.39%     62.91% |       21618      0.39%     63.31% |       21355      0.39%     63.69% |       21445      0.39%     64.08% |       21317      0.39%     64.47% |       21413      0.39%     64.86% |       21626      0.39%     65.26% |       21538      0.39%     65.65% |       21589      0.39%     66.04% |       21692      0.39%     66.44% |       21677      0.39%     66.83% |       21279      0.39%     67.22% |       21225      0.39%     67.60% |       21391      0.39%     67.99% |       21283      0.39%     68.38% |       21565      0.39%     68.77% |       21525      0.39%     69.17% |       21297      0.39%     69.55% |       21436      0.39%     69.94% |       21430      0.39%     70.33% |       21300      0.39%     70.72% |       21454      0.39%     71.11% |       21419      0.39%     71.50% |       21822      0.40%     71.90% |       21311      0.39%     72.29% |       21501      0.39%     72.68% |       21671      0.39%     73.07% |       21569      0.39%     73.47% |       21416      0.39%     73.86% |       21667      0.39%     74.25% |       21321      0.39%     74.64% |       21468      0.39%     75.03% |       21438      0.39%     75.42% |       21270      0.39%     75.81% |       21441      0.39%     76.20% |       21569      0.39%     76.59% |       21302      0.39%     76.98% |       21464      0.39%     77.37% |       21110      0.38%     77.75% |       21536      0.39%     78.15% |       21536      0.39%     78.54% |       21487      0.39%     78.93% |       21280      0.39%     79.32% |       21256      0.39%     79.70% |       21511      0.39%     80.10% |       21406      0.39%     80.49% |       21751      0.40%     80.88% |       21562      0.39%     81.27% |       21290      0.39%     81.66% |       21586      0.39%     82.05% |       21225      0.39%     82.44% |       21506      0.39%     82.83% |       21523      0.39%     83.22% |       21511      0.39%     83.62% |       21443      0.39%     84.01% |       21458      0.39%     84.40% |       21652      0.39%     84.79% |       21294      0.39%     85.18% |       21441      0.39%     85.57% |       21249      0.39%     85.96% |       21323      0.39%     86.34% |       21434      0.39%     86.74% |       21417      0.39%     87.13% |       21436      0.39%     87.52% |       21025      0.38%     87.90% |       21544      0.39%     88.29% |       21344      0.39%     88.68% |       21553      0.39%     89.07% |       21652      0.39%     89.47% |       21378      0.39%     89.85% |       21226      0.39%     90.24% |       21244      0.39%     90.63% |       21492      0.39%     91.02% |       21463      0.39%     91.41% |       21447      0.39%     91.80% |       21486      0.39%     92.19% |       21358      0.39%     92.58% |       21283      0.39%     92.97% |       21460      0.39%     93.36% |       21270      0.39%     93.75% |       21180      0.39%     94.13% |       21716      0.40%     94.53% |       21612      0.39%     94.92% |       21456      0.39%     95.31% |       21326      0.39%     95.70% |       21799      0.40%     96.10% |       21689      0.39%     96.49% |       21205      0.39%     96.88% |       21510      0.39%     97.27% |       21468      0.39%     97.66% |       21395      0.39%     98.05% |       21343      0.39%     98.44% |       21580      0.39%     98.83% |       21517      0.39%     99.22% |       21444      0.39%     99.61% |       21235      0.39%    100.00% (Unspecified)
system.ruby.Directory_Controller.Receive_Forward::total      5492328                       (Unspecified)
[...]
system.ruby.network.sankey.vcvn35.vcvn5             0                       (Unspecified)
system.ruby.network.sankey.vcvn35.vcvn6             0                       (Unspecified)
system.ruby.network.sankey.vcvn35.vcvn7             0                       (Unspecified)
system.ruby.network.sankey.vcvn35.vcvn8             0                       (Unspecified)
system.ruby.network.sankey.vcvn35.vcvn9             0                       (Unspecified)
system.ruby.network.sankey.vcvn4.vcvn0         463049                       (Unspecified)
system.ruby.network.sankey.vcvn4.vcvn1           6453                       (Unspecified)
system.ruby.network.sankey.vcvn4.vcvn10             0                       (Unspecified)
system.ruby.network.sankey.vcvn4.vcvn11             0                       (Unspecified)
system.ruby.network.sankey.vcvn4.vcvn12             0                       (Unspecified)
system.ruby.network.sankey.vcvn4.vcvn13             0                       (Unspecified)
system.ruby.network.sankey.vcvn4.vcvn14             0                       (Unspecified)
system.ruby.network.sankey.vcvn4.vcvn15             0                       (Unspecified)
system.ruby.network.sankey.vcvn4.vcvn16             0                       (Unspecified)
system.ruby.network.sankey.vcvn4.vcvn17             0                       (Unspecified)
system.ruby.network.sankey.vcvn4.vcvn18             0                       (Unspecified)
system.ruby.network.sankey.vcvn4.vcvn19             0                       (Unspecified)
system.ruby.network.sankey.vcvn4.vcvn2             42                       (Unspecified)
system.ruby.network.sankey.vcvn4.vcvn20             0                       (Unspecified)
system.ruby.network.sankey.vcvn4.vcvn21             0                       (Unspecified)
system.ruby.network.sankey.vcvn4.vcvn22             0                       (Unspecified)
system.ruby.network.sankey.vcvn4.vcvn23             0                       (Unspecified)
system.ruby.network.sankey.vcvn4.vcvn24             0                       (Unspecified)
system.ruby.network.sankey.vcvn4.vcvn25             0                       (Unspecified)
system.ruby.network.sankey.vcvn4.vcvn26             0                       (Unspecified)
system.ruby.network.sankey.vcvn4.vcvn27             0                       (Unspecified)
system.ruby.network.sankey.vcvn4.vcvn28             0                       (Unspecified)
system.ruby.network.sankey.vcvn4.vcvn29             0                       (Unspecified)
system.ruby.network.sankey.vcvn4.vcvn3              0                       (Unspecified)
system.ruby.network.sankey.vcvn4.vcvn30             0                       (Unspecified)
system.ruby.network.sankey.vcvn4.vcvn31             0                       (Unspecified)
system.ruby.network.sankey.vcvn4.vcvn32             0                       (Unspecified)
system.ruby.network.sankey.vcvn4.vcvn33             0                       (Unspecified)
system.ruby.network.sankey.vcvn4.vcvn34             0                       (Unspecified)
system.ruby.network.sankey.vcvn4.vcvn35             0                       (Unspecified)
system.ruby.network.sankey.vcvn4.vcvn4              0                       (Unspecified)
system.ruby.network.sankey.vcvn4.vcvn5              0                       (Unspecified)
system.ruby.network.sankey.vcvn4.vcvn6              0                       (Unspecified)
system.ruby.network.sankey.vcvn4.vcvn7              0                       (Unspecified)
system.ruby.network.sankey.vcvn4.vcvn8              0                       (Unspecified)
system.ruby.network.sankey.vcvn4.vcvn9              0                       (Unspecified)
system.ruby.network.sankey.vcvn5.vcvn0         463228                       (Unspecified)
system.ruby.network.sankey.vcvn5.vcvn1           6265                       (Unspecified)
system.ruby.network.sankey.vcvn5.vcvn10             0                       (Unspecified)
system.ruby.network.sankey.vcvn5.vcvn11             0                       (Unspecified)
system.ruby.network.sankey.vcvn5.vcvn12             0                       (Unspecified)
system.ruby.network.sankey.vcvn5.vcvn13             0                       (Unspecified)
system.ruby.network.sankey.vcvn5.vcvn14             0                       (Unspecified)
system.ruby.network.sankey.vcvn5.vcvn15             0                       (Unspecified)
system.ruby.network.sankey.vcvn5.vcvn16             0                       (Unspecified)
system.ruby.network.sankey.vcvn5.vcvn17             0                       (Unspecified)
system.ruby.network.sankey.vcvn5.vcvn18             0                       (Unspecified)
system.ruby.network.sankey.vcvn5.vcvn19             0                       (Unspecified)
system.ruby.network.sankey.vcvn5.vcvn2             45                       (Unspecified)
system.ruby.network.sankey.vcvn5.vcvn20             0                       (Unspecified)
system.ruby.network.sankey.vcvn5.vcvn21             0                       (Unspecified)
system.ruby.network.sankey.vcvn5.vcvn22             0                       (Unspecified)
system.ruby.network.sankey.vcvn5.vcvn23             0                       (Unspecified)
system.ruby.network.sankey.vcvn5.vcvn24             0                       (Unspecified)
system.ruby.network.sankey.vcvn5.vcvn25             0                       (Unspecified)
system.ruby.network.sankey.vcvn5.vcvn26             0                       (Unspecified)
system.ruby.network.sankey.vcvn5.vcvn27             0                       (Unspecified)
system.ruby.network.sankey.vcvn5.vcvn28             0                       (Unspecified)
system.ruby.network.sankey.vcvn5.vcvn29             0                       (Unspecified)
system.ruby.network.sankey.vcvn5.vcvn3              0                       (Unspecified)
system.ruby.network.sankey.vcvn5.vcvn30             0                       (Unspecified)
system.ruby.network.sankey.vcvn5.vcvn31             0                       (Unspecified)
system.ruby.network.sankey.vcvn5.vcvn32             0                       (Unspecified)
system.ruby.network.sankey.vcvn5.vcvn33             0                       (Unspecified)
system.ruby.network.sankey.vcvn5.vcvn34             0                       (Unspecified)
system.ruby.network.sankey.vcvn5.vcvn35             0                       (Unspecified)
system.ruby.network.sankey.vcvn5.vcvn4              0                       (Unspecified)
system.ruby.network.sankey.vcvn5.vcvn5              0                       (Unspecified)
system.ruby.network.sankey.vcvn5.vcvn6              0                       (Unspecified)
system.ruby.network.sankey.vcvn5.vcvn7              0                       (Unspecified)
system.ruby.network.sankey.vcvn5.vcvn8              0                       (Unspecified)
system.ruby.network.sankey.vcvn5.vcvn9              0                       (Unspecified)
system.ruby.network.sankey.vcvn6.vcvn0         463012                       (Unspecified)
system.ruby.network.sankey.vcvn6.vcvn1           6477                       (Unspecified)
system.ruby.network.sankey.vcvn6.vcvn10             0                       (Unspecified)
system.ruby.network.sankey.vcvn6.vcvn11             0                       (Unspecified)
system.ruby.network.sankey.vcvn6.vcvn12             0                       (Unspecified)
system.ruby.network.sankey.vcvn6.vcvn13             0                       (Unspecified)
system.ruby.network.sankey.vcvn6.vcvn14             0                       (Unspecified)
system.ruby.network.sankey.vcvn6.vcvn15             0                       (Unspecified)
system.ruby.network.sankey.vcvn6.vcvn16             0                       (Unspecified)
system.ruby.network.sankey.vcvn6.vcvn17             0                       (Unspecified)
system.ruby.network.sankey.vcvn6.vcvn18             0                       (Unspecified)
system.ruby.network.sankey.vcvn6.vcvn19             0                       (Unspecified)
system.ruby.network.sankey.vcvn6.vcvn2             40                       (Unspecified)
system.ruby.network.sankey.vcvn6.vcvn20             0                       (Unspecified)
system.ruby.network.sankey.vcvn6.vcvn21             0                       (Unspecified)
system.ruby.network.sankey.vcvn6.vcvn22             0                       (Unspecified)
system.ruby.network.sankey.vcvn6.vcvn23             0                       (Unspecified)
system.ruby.network.sankey.vcvn6.vcvn24             0                       (Unspecified)
system.ruby.network.sankey.vcvn6.vcvn25             0                       (Unspecified)
system.ruby.network.sankey.vcvn6.vcvn26             0                       (Unspecified)
system.ruby.network.sankey.vcvn6.vcvn27             0                       (Unspecified)
system.ruby.network.sankey.vcvn6.vcvn28             0                       (Unspecified)
system.ruby.network.sankey.vcvn6.vcvn29             0                       (Unspecified)
system.ruby.network.sankey.vcvn6.vcvn3              1                       (Unspecified)
system.ruby.network.sankey.vcvn6.vcvn30             0                       (Unspecified)
system.ruby.network.sankey.vcvn6.vcvn31             0                       (Unspecified)
system.ruby.network.sankey.vcvn6.vcvn32             0                       (Unspecified)
system.ruby.network.sankey.vcvn6.vcvn33             0                       (Unspecified)
system.ruby.network.sankey.vcvn6.vcvn34             0                       (Unspecified)
system.ruby.network.sankey.vcvn6.vcvn35             0                       (Unspecified)
system.ruby.network.sankey.vcvn6.vcvn4              0                       (Unspecified)
system.ruby.network.sankey.vcvn6.vcvn5              0                       (Unspecified)
system.ruby.network.sankey.vcvn6.vcvn6              0                       (Unspecified)
system.ruby.network.sankey.vcvn6.vcvn7              0                       (Unspecified)
system.ruby.network.sankey.vcvn6.vcvn8              0                       (Unspecified)
system.ruby.network.sankey.vcvn6.vcvn9              0                       (Unspecified)
system.ruby.network.sankey.vcvn7.vcvn0         463116                       (Unspecified)
system.ruby.network.sankey.vcvn7.vcvn1           6359                       (Unspecified)
system.ruby.network.sankey.vcvn7.vcvn10             0                       (Unspecified)
system.ruby.network.sankey.vcvn7.vcvn11             0                       (Unspecified)
system.ruby.network.sankey.vcvn7.vcvn12             0                       (Unspecified)
system.ruby.network.sankey.vcvn7.vcvn13             0                       (Unspecified)
system.ruby.network.sankey.vcvn7.vcvn14             0                       (Unspecified)
system.ruby.network.sankey.vcvn7.vcvn15             0                       (Unspecified)
system.ruby.network.sankey.vcvn7.vcvn16             0                       (Unspecified)
system.ruby.network.sankey.vcvn7.vcvn17             0                       (Unspecified)
system.ruby.network.sankey.vcvn7.vcvn18             0                       (Unspecified)
system.ruby.network.sankey.vcvn7.vcvn19             0                       (Unspecified)
system.ruby.network.sankey.vcvn7.vcvn2             50                       (Unspecified)
system.ruby.network.sankey.vcvn7.vcvn20             0                       (Unspecified)
system.ruby.network.sankey.vcvn7.vcvn21             0                       (Unspecified)
system.ruby.network.sankey.vcvn7.vcvn22             0                       (Unspecified)
system.ruby.network.sankey.vcvn7.vcvn23             0                       (Unspecified)
system.ruby.network.sankey.vcvn7.vcvn24             0                       (Unspecified)
system.ruby.network.sankey.vcvn7.vcvn25             0                       (Unspecified)
system.ruby.network.sankey.vcvn7.vcvn26             0                       (Unspecified)
system.ruby.network.sankey.vcvn7.vcvn27             0                       (Unspecified)
system.ruby.network.sankey.vcvn7.vcvn28             0                       (Unspecified)
system.ruby.network.sankey.vcvn7.vcvn29             0                       (Unspecified)
system.ruby.network.sankey.vcvn7.vcvn3              0                       (Unspecified)
system.ruby.network.sankey.vcvn7.vcvn30             0                       (Unspecified)
system.ruby.network.sankey.vcvn7.vcvn31             0                       (Unspecified)
system.ruby.network.sankey.vcvn7.vcvn32             0                       (Unspecified)
system.ruby.network.sankey.vcvn7.vcvn33             0                       (Unspecified)
system.ruby.network.sankey.vcvn7.vcvn34             0                       (Unspecified)
system.ruby.network.sankey.vcvn7.vcvn35             0                       (Unspecified)
system.ruby.network.sankey.vcvn7.vcvn4              0                       (Unspecified)
system.ruby.network.sankey.vcvn7.vcvn5              0                       (Unspecified)
system.ruby.network.sankey.vcvn7.vcvn6              0                       (Unspecified)
system.ruby.network.sankey.vcvn7.vcvn7              0                       (Unspecified)
system.ruby.network.sankey.vcvn7.vcvn8              0                       (Unspecified)
system.ruby.network.sankey.vcvn7.vcvn9              0                       (Unspecified)
system.ruby.network.sankey.vcvn8.vcvn0         462989                       (Unspecified)
system.ruby.network.sankey.vcvn8.vcvn1           6495                       (Unspecified)
system.ruby.network.sankey.vcvn8.vcvn10             0                       (Unspecified)
system.ruby.network.sankey.vcvn8.vcvn11             0                       (Unspecified)
system.ruby.network.sankey.vcvn8.vcvn12             0                       (Unspecified)
system.ruby.network.sankey.vcvn8.vcvn13             0                       (Unspecified)
system.ruby.network.sankey.vcvn8.vcvn14             0                       (Unspecified)
system.ruby.network.sankey.vcvn8.vcvn15             0                       (Unspecified)
system.ruby.network.sankey.vcvn8.vcvn16             0                       (Unspecified)
system.ruby.network.sankey.vcvn8.vcvn17             0                       (Unspecified)
system.ruby.network.sankey.vcvn8.vcvn18             0                       (Unspecified)
system.ruby.network.sankey.vcvn8.vcvn19             0                       (Unspecified)
system.ruby.network.sankey.vcvn8.vcvn2             38                       (Unspecified)
system.ruby.network.sankey.vcvn8.vcvn20             0                       (Unspecified)
system.ruby.network.sankey.vcvn8.vcvn21             0                       (Unspecified)
system.ruby.network.sankey.vcvn8.vcvn22             0                       (Unspecified)
system.ruby.network.sankey.vcvn8.vcvn23             0                       (Unspecified)
system.ruby.network.sankey.vcvn8.vcvn24             0                       (Unspecified)
system.ruby.network.sankey.vcvn8.vcvn25             0                       (Unspecified)
system.ruby.network.sankey.vcvn8.vcvn26             0                       (Unspecified)
system.ruby.network.sankey.vcvn8.vcvn27             0                       (Unspecified)
system.ruby.network.sankey.vcvn8.vcvn28             0                       (Unspecified)
system.ruby.network.sankey.vcvn8.vcvn29             0                       (Unspecified)
system.ruby.network.sankey.vcvn8.vcvn3              0                       (Unspecified)
system.ruby.network.sankey.vcvn8.vcvn30             0                       (Unspecified)
system.ruby.network.sankey.vcvn8.vcvn31             0                       (Unspecified)
system.ruby.network.sankey.vcvn8.vcvn32             0                       (Unspecified)
system.ruby.network.sankey.vcvn8.vcvn33             0                       (Unspecified)
system.ruby.network.sankey.vcvn8.vcvn34             0                       (Unspecified)
system.ruby.network.sankey.vcvn8.vcvn35             0                       (Unspecified)
system.ruby.network.sankey.vcvn8.vcvn4              0                       (Unspecified)
system.ruby.network.sankey.vcvn8.vcvn5              0                       (Unspecified)
system.ruby.network.sankey.vcvn8.vcvn6              0                       (Unspecified)
system.ruby.network.sankey.vcvn8.vcvn7              0                       (Unspecified)
system.ruby.network.sankey.vcvn8.vcvn8              0                       (Unspecified)
system.ruby.network.sankey.vcvn8.vcvn9              0                       (Unspecified)
system.ruby.network.sankey.vcvn9.vcvn0         463086                       (Unspecified)
system.ruby.network.sankey.vcvn9.vcvn1           6391                       (Unspecified)
system.ruby.network.sankey.vcvn9.vcvn10             0                       (Unspecified)
system.ruby.network.sankey.vcvn9.vcvn11             0                       (Unspecified)
system.ruby.network.sankey.vcvn9.vcvn12             0                       (Unspecified)
system.ruby.network.sankey.vcvn9.vcvn13             0                       (Unspecified)
system.ruby.network.sankey.vcvn9.vcvn14             0                       (Unspecified)
system.ruby.network.sankey.vcvn9.vcvn15             0                       (Unspecified)
system.ruby.network.sankey.vcvn9.vcvn16             0                       (Unspecified)
system.ruby.network.sankey.vcvn9.vcvn17             0                       (Unspecified)
system.ruby.network.sankey.vcvn9.vcvn18             0                       (Unspecified)
system.ruby.network.sankey.vcvn9.vcvn19             0                       (Unspecified)
system.ruby.network.sankey.vcvn9.vcvn2             38                       (Unspecified)
system.ruby.network.sankey.vcvn9.vcvn20             0                       (Unspecified)
system.ruby.network.sankey.vcvn9.vcvn21             0                       (Unspecified)
system.ruby.network.sankey.vcvn9.vcvn22             0                       (Unspecified)
system.ruby.network.sankey.vcvn9.vcvn23             0                       (Unspecified)
system.ruby.network.sankey.vcvn9.vcvn24             0                       (Unspecified)
system.ruby.network.sankey.vcvn9.vcvn25             0                       (Unspecified)
system.ruby.network.sankey.vcvn9.vcvn26             0                       (Unspecified)
system.ruby.network.sankey.vcvn9.vcvn27             0                       (Unspecified)
system.ruby.network.sankey.vcvn9.vcvn28             0                       (Unspecified)
system.ruby.network.sankey.vcvn9.vcvn29             0                       (Unspecified)
system.ruby.network.sankey.vcvn9.vcvn3              0                       (Unspecified)
system.ruby.network.sankey.vcvn9.vcvn30             0                       (Unspecified)
system.ruby.network.sankey.vcvn9.vcvn31             0                       (Unspecified)
system.ruby.network.sankey.vcvn9.vcvn32             0                       (Unspecified)
system.ruby.network.sankey.vcvn9.vcvn33             0                       (Unspecified)
system.ruby.network.sankey.vcvn9.vcvn34             0                       (Unspecified)
system.ruby.network.sankey.vcvn9.vcvn35             0                       (Unspecified)
system.ruby.network.sankey.vcvn9.vcvn4              0                       (Unspecified)
system.ruby.network.sankey.vcvn9.vcvn5              0                       (Unspecified)
system.ruby.network.sankey.vcvn9.vcvn6              0                       (Unspecified)
system.ruby.network.sankey.vcvn9.vcvn7              0                       (Unspecified)
system.ruby.network.sankey.vcvn9.vcvn8              0                       (Unspecified)
system.ruby.network.sankey.vcvn9.vcvn9              0                       (Unspecified)

---------- End Simulation Statistics   ----------
