
---------- Begin Simulation Statistics ----------
simSeconds                                   0.002147                       # Number of seconds simulated (Second)
simTicks                                   2147483750                       # Number of ticks simulated (Tick)
finalTick                                  2147483750                       # Number of ticks from beginning of simulation (restored from checkpoints and never reset) (Tick)
simFreq                                  1000000000000                       # The number of ticks per simulated second ((Tick/Second))
hostSeconds                                   5074.79                       # Real time elapsed on the host (Second)
hostTickRate                                   423167                       # The number of ticks simulated per host second (ticks/s) ((Tick/Second))
hostMemory                                    8015444                       # Number of bytes of host memory used (Byte)
system.clk_domain.clock                           250                       # Clock period in ticks (Tick)
system.cpu0.power_state.pwrStateResidencyTicks::UNDEFINED   2147483750                       # Cumulative time (in ticks) in various power states (Tick)
system.cpu1.power_state.pwrStateResidencyTicks::UNDEFINED   2147483750                       # Cumulative time (in ticks) in various power states (Tick)
system.cpu10.power_state.pwrStateResidencyTicks::UNDEFINED   2147483750                       # Cumulative time (in ticks) in various power states (Tick)
system.cpu11.power_state.pwrStateResidencyTicks::UNDEFINED   2147483750                       # Cumulative time (in ticks) in various power states (Tick)
system.cpu12.power_state.pwrStateResidencyTicks::UNDEFINED   2147483750                       # Cumulative time (in ticks) in various power states (Tick)
system.cpu13.power_state.pwrStateResidencyTicks::UNDEFINED   2147483750                       # Cumulative time (in ticks) in various power states (Tick)
system.cpu14.power_state.pwrStateResidencyTicks::UNDEFINED   2147483750                       # Cumulative time (in ticks) in various power states (Tick)
system.cpu15.power_state.pwrStateResidencyTicks::UNDEFINED   2147483750                       # Cumulative time (in ticks) in various power states (Tick)
system.cpu16.power_state.pwrStateResidencyTicks::UNDEFINED   2147483750                       # Cumulative time (in ticks) in various power states (Tick)
system.cpu17.power_state.pwrStateResidencyTicks::UNDEFINED   2147483750                       # Cumulative time (in ticks) in various power states (Tick)
system.cpu18.power_state.pwrStateResidencyTicks::UNDEFINED   2147483750                       # Cumulative time (in ticks) in various power states (Tick)
system.cpu19.power_state.pwrStateResidencyTicks::UNDEFINED   2147483750                       # Cumulative time (in ticks) in various power states (Tick)
system.cpu2.power_state.pwrStateResidencyTicks::UNDEFINED   2147483750                       # Cumulative time (in ticks) in various power states (Tick)
system.cpu20.power_state.pwrStateResidencyTicks::UNDEFINED   2147483750                       # Cumulative time (in ticks) in various power states (Tick)
system.cpu21.power_state.pwrStateResidencyTicks::UNDEFINED   2147483750                       # Cumulative time (in ticks) in various power states (Tick)
system.cpu22.power_state.pwrStateResidencyTicks::UNDEFINED   2147483750                       # Cumulative time (in ticks) in various power states (Tick)
system.cpu23.power_state.pwrStateResidencyTicks::UNDEFINED   2147483750                       # Cumulative time (in ticks) in various power states (Tick)
system.cpu24.power_state.pwrStateResidencyTicks::UNDEFINED   2147483750                       # Cumulative time (in ticks) in various power states (Tick)
system.cpu25.power_state.pwrStateResidencyTicks::UNDEFINED   2147483750                       # Cumulative time (in ticks) in various power states (Tick)
system.cpu26.power_state.pwrStateResidencyTicks::UNDEFINED   2147483750                       # Cumulative time (in ticks) in various power states (Tick)
system.cpu27.power_state.pwrStateResidencyTicks::UNDEFINED   2147483750                       # Cumulative time (in ticks) in various power states (Tick)
system.cpu28.power_state.pwrStateResidencyTicks::UNDEFINED   2147483750                       # Cumulative time (in ticks) in various power states (Tick)
system.cpu29.power_state.pwrStateResidencyTicks::UNDEFINED   2147483750                       # Cumulative time (in ticks) in various power states (Tick)
system.cpu3.power_state.pwrStateResidencyTicks::UNDEFINED   2147483750                       # Cumulative time (in ticks) in various power states (Tick)
system.cpu30.power_state.pwrStateResidencyTicks::UNDEFINED   2147483750                       # Cumulative time (in ticks) in various power states (Tick)
system.cpu31.power_state.pwrStateResidencyTicks::UNDEFINED   2147483750                       # Cumulative time (in ticks) in various power states (Tick)
system.cpu32.power_state.pwrStateResidencyTicks::UNDEFINED   2147483750                       # Cumulative time (in ticks) in various power states (Tick)
system.cpu33.power_state.pwrStateResidencyTicks::UNDEFINED   2147483750                       # Cumulative time (in ticks) in various power states (Tick)
system.cpu34.power_state.pwrStateResidencyTicks::UNDEFINED   2147483750                       # Cumulative time (in ticks) in various power states (Tick)
system.cpu35.power_state.pwrStateResidencyTicks::UNDEFINED   2147483750                       # Cumulative time (in ticks) in various power states (Tick)
system.cpu36.power_state.pwrStateResidencyTicks::UNDEFINED   2147483750                       # Cumulative time (in ticks) in various power states (Tick)
system.cpu37.power_state.pwrStateResidencyTicks::UNDEFINED   2147483750                       # Cumulative time (in ticks) in various power states (Tick)
system.cpu38.power_state.pwrStateResidencyTicks::UNDEFINED   2147483750                       # Cumulative time (in ticks) in various power states (Tick)
system.cpu39.power_state.pwrStateResidencyTicks::UNDEFINED   2147483750                       # Cumulative time (in ticks) in various power states (Tick)
system.cpu4.power_state.pwrStateResidencyTicks::UNDEFINED   2147483750                       # Cumulative time (in ticks) in various power states (Tick)
system.cpu5.power_state.pwrStateResidencyTicks::UNDEFINED   2147483750                       # Cumulative time (in ticks) in various power states (Tick)
system.cpu6.power_state.pwrStateResidencyTicks::UNDEFINED   2147483750                       # Cumulative time (in ticks) in various power states (Tick)
system.cpu7.power_state.pwrStateResidencyTicks::UNDEFINED   2147483750                       # Cumulative time (in ticks) in various power states (Tick)
system.cpu8.power_state.pwrStateResidencyTicks::UNDEFINED   2147483750                       # Cumulative time (in ticks) in various power states (Tick)
system.cpu9.power_state.pwrStateResidencyTicks::UNDEFINED   2147483750                       # Cumulative time (in ticks) in various power states (Tick)
system.mem_ctrls0.power_state.pwrStateResidencyTicks::UNDEFINED   2147483750                       # Cumulative time (in ticks) in various power states (Tick)
system.mem_ctrls1.power_state.pwrStateResidencyTicks::UNDEFINED   2147483750                       # Cumulative time (in ticks) in various power states (Tick)
system.mem_ctrls10.power_state.pwrStateResidencyTicks::UNDEFINED   2147483750                       # Cumulative time (in ticks) in various power states (Tick)
system.mem_ctrls11.power_state.pwrStateResidencyTicks::UNDEFINED   2147483750                       # Cumulative time (in ticks) in various power states (Tick)
system.mem_ctrls12.power_state.pwrStateResidencyTicks::UNDEFINED   2147483750                       # Cumulative time (in ticks) in various power states (Tick)
system.mem_ctrls13.power_state.pwrStateResidencyTicks::UNDEFINED   2147483750                       # Cumulative time (in ticks) in various power states (Tick)
system.mem_ctrls14.power_state.pwrStateResidencyTicks::UNDEFINED   2147483750                       # Cumulative time (in ticks) in various power states (Tick)
system.mem_ctrls15.power_state.pwrStateResidencyTicks::UNDEFINED   2147483750                       # Cumulative time (in ticks) in various power states (Tick)
system.mem_ctrls16.power_state.pwrStateResidencyTicks::UNDEFINED   2147483750                       # Cumulative time (in ticks) in various power states (Tick)
system.mem_ctrls17.power_state.pwrStateResidencyTicks::UNDEFINED   2147483750                       # Cumulative time (in ticks) in various power states (Tick)
system.mem_ctrls18.power_state.pwrStateResidencyTicks::UNDEFINED   2147483750                       # Cumulative time (in ticks) in various power states (Tick)
system.mem_ctrls19.power_state.pwrStateResidencyTicks::UNDEFINED   2147483750                       # Cumulative time (in ticks) in various power states (Tick)
system.mem_ctrls2.power_state.pwrStateResidencyTicks::UNDEFINED   2147483750                       # Cumulative time (in ticks) in various power states (Tick)
system.mem_ctrls20.power_state.pwrStateResidencyTicks::UNDEFINED   2147483750                       # Cumulative time (in ticks) in various power states (Tick)
system.mem_ctrls21.power_state.pwrStateResidencyTicks::UNDEFINED   2147483750                       # Cumulative time (in ticks) in various power states (Tick)
system.mem_ctrls22.power_state.pwrStateResidencyTicks::UNDEFINED   2147483750                       # Cumulative time (in ticks) in various power states (Tick)
system.mem_ctrls23.power_state.pwrStateResidencyTicks::UNDEFINED   2147483750                       # Cumulative time (in ticks) in various power states (Tick)
system.mem_ctrls24.power_state.pwrStateResidencyTicks::UNDEFINED   2147483750                       # Cumulative time (in ticks) in various power states (Tick)
system.mem_ctrls25.power_state.pwrStateResidencyTicks::UNDEFINED   2147483750                       # Cumulative time (in ticks) in various power states (Tick)
system.mem_ctrls26.power_state.pwrStateResidencyTicks::UNDEFINED   2147483750                       # Cumulative time (in ticks) in various power states (Tick)
system.mem_ctrls27.power_state.pwrStateResidencyTicks::UNDEFINED   2147483750                       # Cumulative time (in ticks) in various power states (Tick)
system.mem_ctrls28.power_state.pwrStateResidencyTicks::UNDEFINED   2147483750                       # Cumulative time (in ticks) in various power states (Tick)
system.mem_ctrls29.power_state.pwrStateResidencyTicks::UNDEFINED   2147483750                       # Cumulative time (in ticks) in various power states (Tick)
system.mem_ctrls3.power_state.pwrStateResidencyTicks::UNDEFINED   2147483750                       # Cumulative time (in ticks) in various power states (Tick)
system.mem_ctrls30.power_state.pwrStateResidencyTicks::UNDEFINED   2147483750                       # Cumulative time (in ticks) in various power states (Tick)
system.mem_ctrls31.power_state.pwrStateResidencyTicks::UNDEFINED   2147483750                       # Cumulative time (in ticks) in various power states (Tick)
system.mem_ctrls32.power_state.pwrStateResidencyTicks::UNDEFINED   2147483750                       # Cumulative time (in ticks) in various power states (Tick)
system.mem_ctrls33.power_state.pwrStateResidencyTicks::UNDEFINED   2147483750                       # Cumulative time (in ticks) in various power states (Tick)
system.mem_ctrls34.power_state.pwrStateResidencyTicks::UNDEFINED   2147483750                       # Cumulative time (in ticks) in various power states (Tick)
system.mem_ctrls35.power_state.pwrStateResidencyTicks::UNDEFINED   2147483750                       # Cumulative time (in ticks) in various power states (Tick)
system.mem_ctrls36.power_state.pwrStateResidencyTicks::UNDEFINED   2147483750                       # Cumulative time (in ticks) in various power states (Tick)
system.mem_ctrls37.power_state.pwrStateResidencyTicks::UNDEFINED   2147483750                       # Cumulative time (in ticks) in various power states (Tick)
system.mem_ctrls38.power_state.pwrStateResidencyTicks::UNDEFINED   2147483750                       # Cumulative time (in ticks) in various power states (Tick)
system.mem_ctrls39.power_state.pwrStateResidencyTicks::UNDEFINED   2147483750                       # Cumulative time (in ticks) in various power states (Tick)
system.mem_ctrls4.power_state.pwrStateResidencyTicks::UNDEFINED   2147483750                       # Cumulative time (in ticks) in various power states (Tick)
system.mem_ctrls40.power_state.pwrStateResidencyTicks::UNDEFINED   2147483750                       # Cumulative time (in ticks) in various power states (Tick)
system.mem_ctrls41.power_state.pwrStateResidencyTicks::UNDEFINED   2147483750                       # Cumulative time (in ticks) in various power states (Tick)
system.mem_ctrls42.power_state.pwrStateResidencyTicks::UNDEFINED   2147483750                       # Cumulative time (in ticks) in various power states (Tick)
system.mem_ctrls43.power_state.pwrStateResidencyTicks::UNDEFINED   2147483750                       # Cumulative time (in ticks) in various power states (Tick)
system.mem_ctrls44.power_state.pwrStateResidencyTicks::UNDEFINED   2147483750                       # Cumulative time (in ticks) in various power states (Tick)
system.mem_ctrls45.power_state.pwrStateResidencyTicks::UNDEFINED   2147483750                       # Cumulative time (in ticks) in various power states (Tick)
system.mem_ctrls46.power_state.pwrStateResidencyTicks::UNDEFINED   2147483750                       # Cumulative time (in ticks) in various power states (Tick)
system.mem_ctrls47.power_state.pwrStateResidencyTicks::UNDEFINED   2147483750                       # Cumulative time (in ticks) in various power states (Tick)
system.mem_ctrls48.power_state.pwrStateResidencyTicks::UNDEFINED   2147483750                       # Cumulative time (in ticks) in various power states (Tick)
system.mem_ctrls49.power_state.pwrStateResidencyTicks::UNDEFINED   2147483750                       # Cumulative time (in ticks) in various power states (Tick)
system.mem_ctrls5.power_state.pwrStateResidencyTicks::UNDEFINED   2147483750                       # Cumulative time (in ticks) in various power states (Tick)
system.mem_ctrls50.power_state.pwrStateResidencyTicks::UNDEFINED   2147483750                       # Cumulative time (in ticks) in various power states (Tick)
system.mem_ctrls51.power_state.pwrStateResidencyTicks::UNDEFINED   2147483750                       # Cumulative time (in ticks) in various power states (Tick)
system.mem_ctrls52.power_state.pwrStateResidencyTicks::UNDEFINED   2147483750                       # Cumulative time (in ticks) in various power states (Tick)
system.mem_ctrls53.power_state.pwrStateResidencyTicks::UNDEFINED   2147483750                       # Cumulative time (in ticks) in various power states (Tick)
system.mem_ctrls54.power_state.pwrStateResidencyTicks::UNDEFINED   2147483750                       # Cumulative time (in ticks) in various power states (Tick)
system.mem_ctrls55.power_state.pwrStateResidencyTicks::UNDEFINED   2147483750                       # Cumulative time (in ticks) in various power states (Tick)
system.mem_ctrls56.power_state.pwrStateResidencyTicks::UNDEFINED   2147483750                       # Cumulative time (in ticks) in various power states (Tick)
system.mem_ctrls57.power_state.pwrStateResidencyTicks::UNDEFINED   2147483750                       # Cumulative time (in ticks) in various power states (Tick)
system.mem_ctrls58.power_state.pwrStateResidencyTicks::UNDEFINED   2147483750                       # Cumulative time (in ticks) in various power states (Tick)
system.mem_ctrls59.power_state.pwrStateResidencyTicks::UNDEFINED   2147483750                       # Cumulative time (in ticks) in various power states (Tick)
system.mem_ctrls6.power_state.pwrStateResidencyTicks::UNDEFINED   2147483750                       # Cumulative time (in ticks) in various power states (Tick)
system.mem_ctrls60.power_state.pwrStateResidencyTicks::UNDEFINED   2147483750                       # Cumulative time (in ticks) in various power states (Tick)
system.mem_ctrls61.power_state.pwrStateResidencyTicks::UNDEFINED   2147483750                       # Cumulative time (in ticks) in various power states (Tick)
system.mem_ctrls62.power_state.pwrStateResidencyTicks::UNDEFINED   2147483750                       # Cumulative time (in ticks) in various power states (Tick)
system.mem_ctrls63.power_state.pwrStateResidencyTicks::UNDEFINED   2147483750                       # Cumulative time (in ticks) in various power states (Tick)
system.mem_ctrls7.power_state.pwrStateResidencyTicks::UNDEFINED   2147483750                       # Cumulative time (in ticks) in various power states (Tick)
system.mem_ctrls8.power_state.pwrStateResidencyTicks::UNDEFINED   2147483750                       # Cumulative time (in ticks) in various power states (Tick)
system.mem_ctrls9.power_state.pwrStateResidencyTicks::UNDEFINED   2147483750                       # Cumulative time (in ticks) in various power states (Tick)
system.ruby.m_outstandReqHistSeqr::bucket_size            1                       (Unspecified)
system.ruby.m_outstandReqHistSeqr::max_bucket            9                       (Unspecified)
system.ruby.m_outstandReqHistSeqr::samples     34319894                       (Unspecified)
system.ruby.m_outstandReqHistSeqr::mean             1                       (Unspecified)
system.ruby.m_outstandReqHistSeqr::gmean            1                       (Unspecified)
system.ruby.m_outstandReqHistSeqr        |           0      0.00%      0.00% |    34319894    100.00%    100.00% |           0      0.00%    100.00% |           0      0.00%    100.00% |           0      0.00%    100.00% |           0      0.00%    100.00% |           0      0.00%    100.00% |           0      0.00%    100.00% |           0      0.00%    100.00% |           0      0.00%    100.00% (Unspecified)
system.ruby.m_outstandReqHistSeqr::total     34319894                       (Unspecified)
system.ruby.m_latencyHistSeqr::bucket_size            1                       (Unspecified)
system.ruby.m_latencyHistSeqr::max_bucket            9                       (Unspecified)
system.ruby.m_latencyHistSeqr::samples       34319894                       (Unspecified)
system.ruby.m_latencyHistSeqr::mean                 1                       (Unspecified)
system.ruby.m_latencyHistSeqr::gmean                1                       (Unspecified)
system.ruby.m_latencyHistSeqr            |           0      0.00%      0.00% |    34319894    100.00%    100.00% |           0      0.00%    100.00% |           0      0.00%    100.00% |           0      0.00%    100.00% |           0      0.00%    100.00% |           0      0.00%    100.00% |           0      0.00%    100.00% |           0      0.00%    100.00% |           0      0.00%    100.00% (Unspecified)
system.ruby.m_latencyHistSeqr::total         34319894                       (Unspecified)
system.ruby.m_hitLatencyHistSeqr::bucket_size            1                       (Unspecified)
system.ruby.m_hitLatencyHistSeqr::max_bucket            9                       (Unspecified)
system.ruby.m_hitLatencyHistSeqr::samples     34319894                       (Unspecified)
system.ruby.m_hitLatencyHistSeqr::mean              1                       (Unspecified)
system.ruby.m_hitLatencyHistSeqr::gmean             1                       (Unspecified)
system.ruby.m_hitLatencyHistSeqr         |           0      0.00%      0.00% |    34319894    100.00%    100.00% |           0      0.00%    100.00% |           0      0.00%    100.00% |           0      0.00%    100.00% |           0      0.00%    100.00% |           0      0.00%    100.00% |           0      0.00%    100.00% |           0      0.00%    100.00% |           0      0.00%    100.00% (Unspecified)
system.ruby.m_hitLatencyHistSeqr::total      34319894                       (Unspecified)
system.ruby.Directory_Controller.Receive_Request |      267409      1.56%      1.56% |      268480      1.56%      3.12% |      268428      1.56%      4.69% |      268896      1.57%      6.25% |      267966      1.56%      7.82% |      267239      1.56%      9.37% |      268028      1.56%     10.94% |      268559      1.57%     12.50% |      268703      1.57%     14.07% |      267779      1.56%     15.63% |      268410      1.56%     17.19% |      269243      1.57%     18.76% |      268391      1.56%     20.32% |      268030      1.56%     21.89% |      267576      1.56%     23.45% |      267956      1.56%     25.01% |      267684      1.56%     26.57% |      268372      1.56%     28.13% |      268214      1.56%     29.69% |      267828      1.56%     31.25% |      268220      1.56%     32.82% |      268034      1.56%     34.38% |      267953      1.56%     35.94% |      268372      1.56%     37.50% |      267825      1.56%     39.07% |      268094      1.56%     40.63% |      268131      1.56%     42.19% |      267817      1.56%     43.75% |      267997      1.56%     45.31% |      267785      1.56%     46.87% |      269267      1.57%     48.44% |      267953      1.56%     50.00% |      267295      1.56%     51.56% |      267641      1.56%     53.12% |      268221      1.56%     54.68% |      268466      1.56%     56.25% |      268502      1.56%     57.81% |      268799      1.57%     59.38% |      268377      1.56%     60.94% |      268009      1.56%     62.51% |      268414      1.56%     64.07% |      267516      1.56%     65.63% |      268250      1.56%     67.19% |      267800      1.56%     68.75% |      268416      1.56%     70.32% |      268939      1.57%     71.88% |      268154      1.56%     73.45% |      267907      1.56%     75.01% |      267240      1.56%     76.57% |      268609      1.57%     78.13% |      267483      1.56%     79.69% |      268577      1.57%     81.26% |      267945      1.56%     82.82% |      268262      1.56%     84.38% |      267061      1.56%     85.94% |      268215      1.56%     87.50% |      268002      1.56%     89.06% |      267526      1.56%     90.62% |      267944      1.56%     92.18% |      268004      1.56%     93.74% |      268187      1.56%     95.31% |      268494      1.56%     96.87% |      268455      1.56%     98.44% |      268507      1.56%    100.00% (Unspecified)
system.ruby.Directory_Controller.Receive_Request::total     17159856                       (Unspecified)
system.ruby.Directory_Controller.Receive_Response |      167063      1.56%      1.56% |      167312      1.56%      3.12% |      166926      1.56%      4.68% |      167644      1.57%      6.25% |      167855      1.57%      7.82% |      166913      1.56%      9.38% |      166052      1.55%     10.93% |      166263      1.55%     12.49% |      167560      1.57%     14.05% |      167082      1.56%     15.61% |      166917      1.56%     17.17% |      166824      1.56%     18.73% |      167119      1.56%     20.29% |      167718      1.57%     21.86% |      167151      1.56%     23.42% |      167332      1.56%     24.99% |      167767      1.57%     26.55% |      167300      1.56%     28.12% |      167970      1.57%     29.69% |      167062      1.56%     31.25% |      167126      1.56%     32.81% |      167096      1.56%     34.37% |      167026      1.56%     35.93% |      167948      1.57%     37.50% |      167323      1.56%     39.07% |      167229      1.56%     40.63% |      166986      1.56%     42.19% |      166626      1.56%     43.75% |      166526      1.56%     45.30% |      166695      1.56%     46.86% |      167512      1.57%     48.43% |      167011      1.56%     49.99% |      168018      1.57%     51.56% |      166834      1.56%     53.12% |      167181      1.56%     54.68% |      167093      1.56%     56.24% |      166109      1.55%     57.79% |      167305      1.56%     59.36% |      167351      1.56%     60.92% |      166702      1.56%     62.48% |      168213      1.57%     64.05% |      167546      1.57%     65.62% |      167684      1.57%     67.18% |      166679      1.56%     68.74% |      167114      1.56%     70.30% |      167214      1.56%     71.87% |      167807      1.57%     73.43% |      167175      1.56%     75.00% |      167406      1.56%     76.56% |      166841      1.56%     78.12% |      166847      1.56%     79.68% |      167253      1.56%     81.24% |      167218      1.56%     82.80% |      166863      1.56%     84.36% |      167169      1.56%     85.93% |      167807      1.57%     87.49% |      166955      1.56%     89.05% |      167417      1.56%     90.62% |      167803      1.57%     92.19% |      167013      1.56%     93.75% |      167113      1.56%     95.31% |      167315      1.56%     96.87% |      167571      1.57%     98.44% |      167007      1.56%    100.00% (Unspecified)
system.ruby.Directory_Controller.Receive_Response::total     10700557                       (Unspecified)
system.ruby.Directory_Controller.I.Receive_Request |      267409      1.56%      1.56% |      268480      1.56%      3.12% |      268428      1.56%      4.69% |      268896      1.57%      6.25% |      267966      1.56%      7.82% |      267239      1.56%      9.37% |      268028      1.56%     10.94% |      268559      1.57%     12.50% |      268703      1.57%     14.07% |      267779      1.56%     15.63% |      268410      1.56%     17.19% |      269243      1.57%     18.76% |      268391      1.56%     20.32% |      268030      1.56%     21.89% |      267576      1.56%     23.45% |      267956      1.56%     25.01% |      267684      1.56%     26.57% |      268372      1.56%     28.13% |      268214      1.56%     29.69% |      267828      1.56%     31.25% |      268220      1.56%     32.82% |      268034      1.56%     34.38% |      267953      1.56%     35.94% |      268372      1.56%     37.50% |      267825      1.56%     39.07% |      268094      1.56%     40.63% |      268131      1.56%     42.19% |      267817      1.56%     43.75% |      267997      1.56%     45.31% |      267785      1.56%     46.87% |      269267      1.57%     48.44% |      267953      1.56%     50.00% |      267295      1.56%     51.56% |      267641      1.56%     53.12% |      268221      1.56%     54.68% |      268466      1.56%     56.25% |      268502      1.56%     57.81% |      268799      1.57%     59.38% |      268377      1.56%     60.94% |      268009      1.56%     62.51% |      268414      1.56%     64.07% |      267516      1.56%     65.63% |      268250      1.56%     67.19% |      267800      1.56%     68.75% |      268416      1.56%     70.32% |      268939      1.57%     71.88% |      268154      1.56%     73.45% |      267907      1.56%     75.01% |      267240      1.56%     76.57% |      268609      1.57%     78.13% |      267483      1.56%     79.69% |      268577      1.57%     81.26% |      267945      1.56%     82.82% |      268262      1.56%     84.38% |      267061      1.56%     85.94% |      268215      1.56%     87.50% |      268002      1.56%     89.06% |      267526      1.56%     90.62% |      267944      1.56%     92.18% |      268004      1.56%     93.74% |      268187      1.56%     95.31% |      268494      1.56%     96.87% |      268455      1.56%     98.44% |      268507      1.56%    100.00% (Unspecified)
system.ruby.Directory_Controller.I.Receive_Request::total     17159856                       (Unspecified)
system.ruby.Directory_Controller.I.Receive_Response |      167063      1.56%      1.56% |      167312      1.56%      3.12% |      166926      1.56%      4.68% |      167644      1.57%      6.25% |      167855      1.57%      7.82% |      166913      1.56%      9.38% |      166052      1.55%     10.93% |      166263      1.55%     12.49% |      167560      1.57%     14.05% |      167082      1.56%     15.61% |      166917      1.56%     17.17% |      166824      1.56%     18.73% |      167119      1.56%     20.29% |      167718      1.57%     21.86% |      167151      1.56%     23.42% |      167332      1.56%     24.99% |      167767      1.57%     26.55% |      167300      1.56%     28.12% |      167970      1.57%     29.69% |      167062      1.56%     31.25% |      167126      1.56%     32.81% |      167096      1.56%     34.37% |      167026      1.56%     35.93% |      167948      1.57%     37.50% |      167323      1.56%     39.07% |      167229      1.56%     40.63% |      166986      1.56%     42.19% |      166626      1.56%     43.75% |      166526      1.56%     45.30% |      166695      1.56%     46.86% |      167512      1.57%     48.43% |      167011      1.56%     49.99% |      168018      1.57%     51.56% |      166834      1.56%     53.12% |      167181      1.56%     54.68% |      167093      1.56%     56.24% |      166109      1.55%     57.79% |      167305      1.56%     59.36% |      167351      1.56%     60.92% |      166702      1.56%     62.48% |      168213      1.57%     64.05% |      167546      1.57%     65.62% |      167684      1.57%     67.18% |      166679      1.56%     68.74% |      167114      1.56%     70.30% |      167214      1.56%     71.87% |      167807      1.57%     73.43% |      167175      1.56%     75.00% |      167406      1.56%     76.56% |      166841      1.56%     78.12% |      166847      1.56%     79.68% |      167253      1.56%     81.24% |      167218      1.56%     82.80% |      166863      1.56%     84.36% |      167169      1.56%     85.93% |      167807      1.57%     87.49% |      166955      1.56%     89.05% |      167417      1.56%     90.62% |      167803      1.57%     92.19% |      167013      1.56%     93.75% |      167113      1.56%     95.31% |      167315      1.56%     96.87% |      167571      1.57%     98.44% |      167007      1.56%    100.00% (Unspecified)
system.ruby.Directory_Controller.I.Receive_Response::total     10700557                       (Unspecified)
system.ruby.L1Cache_Controller.Request   |      429840      2.50%      2.50% |      429567      2.50%      5.01% |      429305      2.50%      7.51% |      428098      2.49%     10.00% |      429697      2.50%     12.51% |      428686      2.50%     15.01% |      428557      2.50%     17.50% |      428659      2.50%     20.00% |      428383      2.50%     22.50% |      429004      2.50%     25.00% |      429335      2.50%     27.50% |      428903      2.50%     30.00% |      429558      2.50%     32.50% |      429264      2.50%     35.01% |      429074      2.50%     37.51% |      428709      2.50%     40.00% |      429510      2.50%     42.51% |      427983      2.49%     45.00% |      429105      2.50%     47.50% |      429235      2.50%     50.00% |      429702      2.50%     52.51% |      428796      2.50%     55.01% |      429614      2.50%     57.51% |      428663      2.50%     60.01% |      427896      2.49%     62.50% |      428096      2.49%     65.00% |      429202      2.50%     67.50% |      430299      2.51%     70.00% |      430343      2.51%     72.51% |      428718      2.50%     75.01% |      428981      2.50%     77.51% |      428309      2.50%     80.01% |      429056      2.50%     82.51% |      428813      2.50%     85.01% |      429599      2.50%     87.51% |      429445      2.50%     90.01% |      428497      2.50%     92.51% |      427810      2.49%     95.00% |      429315      2.50%     97.50% |      428267      2.50%    100.00% (Unspecified)
system.ruby.L1Cache_Controller.Request::total     17159893                       (Unspecified)
system.ruby.L1Cache_Controller.Response  |      429264      2.50%      2.50% |      429211      2.50%      5.00% |      428250      2.50%      7.50% |      429604      2.50%     10.00% |      429801      2.50%     12.51% |      428808      2.50%     15.01% |      428395      2.50%     17.50% |      428868      2.50%     20.00% |      428044      2.49%     22.50% |      429724      2.50%     25.00% |      429418      2.50%     27.50% |      428770      2.50%     30.00% |      428580      2.50%     32.50% |      428508      2.50%     35.00% |      428298      2.50%     37.49% |      428731      2.50%     39.99% |      429281      2.50%     42.49% |      428640      2.50%     44.99% |      429478      2.50%     47.49% |      428038      2.49%     49.99% |      429081      2.50%     52.49% |      429770      2.50%     54.99% |      429029      2.50%     57.49% |      429394      2.50%     59.99% |      428911      2.50%     62.49% |      429503      2.50%     65.00% |      430357      2.51%     67.50% |      428317      2.50%     70.00% |      429264      2.50%     72.50% |      429335      2.50%     75.00% |      427847      2.49%     77.50% |      429296      2.50%     80.00% |      428931      2.50%     82.50% |      429078      2.50%     85.00% |      429676      2.50%     87.50% |      429027      2.50%     90.00% |      428789      2.50%     92.50% |      429696      2.50%     95.01% |      428391      2.50%     97.50% |      428598      2.50%    100.00% (Unspecified)
system.ruby.L1Cache_Controller.Response::total     17160001                       (Unspecified)
system.ruby.L1Cache_Controller.I.Request |      429840      2.50%      2.50% |      429567      2.50%      5.01% |      429305      2.50%      7.51% |      428098      2.49%     10.00% |      429697      2.50%     12.51% |      428686      2.50%     15.01% |      428557      2.50%     17.50% |      428659      2.50%     20.00% |      428383      2.50%     22.50% |      429004      2.50%     25.00% |      429335      2.50%     27.50% |      428903      2.50%     30.00% |      429558      2.50%     32.50% |      429264      2.50%     35.01% |      429074      2.50%     37.51% |      428709      2.50%     40.00% |      429510      2.50%     42.51% |      427983      2.49%     45.00% |      429105      2.50%     47.50% |      429235      2.50%     50.00% |      429702      2.50%     52.51% |      428796      2.50%     55.01% |      429614      2.50%     57.51% |      428663      2.50%     60.01% |      427896      2.49%     62.50% |      428096      2.49%     65.00% |      429202      2.50%     67.50% |      430299      2.51%     70.00% |      430343      2.51%     72.51% |      428718      2.50%     75.01% |      428981      2.50%     77.51% |      428309      2.50%     80.01% |      429056      2.50%     82.51% |      428813      2.50%     85.01% |      429599      2.50%     87.51% |      429445      2.50%     90.01% |      428497      2.50%     92.51% |      427810      2.49%     95.00% |      429315      2.50%     97.50% |      428267      2.50%    100.00% (Unspecified)
system.ruby.L1Cache_Controller.I.Request::total     17159893                       (Unspecified)
system.ruby.L1Cache_Controller.I.Response |      429264      2.50%      2.50% |      429211      2.50%      5.00% |      428250      2.50%      7.50% |      429604      2.50%     10.00% |      429801      2.50%     12.51% |      428808      2.50%     15.01% |      428395      2.50%     17.50% |      428868      2.50%     20.00% |      428044      2.49%     22.50% |      429724      2.50%     25.00% |      429418      2.50%     27.50% |      428770      2.50%     30.00% |      428580      2.50%     32.50% |      428508      2.50%     35.00% |      428298      2.50%     37.49% |      428731      2.50%     39.99% |      429281      2.50%     42.49% |      428640      2.50%     44.99% |      429478      2.50%     47.49% |      428038      2.49%     49.99% |      429081      2.50%     52.49% |      429770      2.50%     54.99% |      429029      2.50%     57.49% |      429394      2.50%     59.99% |      428911      2.50%     62.49% |      429503      2.50%     65.00% |      430357      2.51%     67.50% |      428317      2.50%     70.00% |      429264      2.50%     72.50% |      429335      2.50%     75.00% |      427847      2.49%     77.50% |      429296      2.50%     80.00% |      428931      2.50%     82.50% |      429078      2.50%     85.00% |      429676      2.50%     87.50% |      429027      2.50%     90.00% |      428789      2.50%     92.50% |      429696      2.50%     95.01% |      428391      2.50%     97.50% |      428598      2.50%    100.00% (Unspecified)
system.ruby.L1Cache_Controller.I.Response::total     17160001                       (Unspecified)
system.ruby.RequestType.LD.latency_hist_seqr::bucket_size            1                       (Unspecified)
system.ruby.RequestType.LD.latency_hist_seqr::max_bucket            9                       (Unspecified)
system.ruby.RequestType.LD.latency_hist_seqr::samples     17159893                       (Unspecified)
system.ruby.RequestType.LD.latency_hist_seqr::mean            1                       (Unspecified)
system.ruby.RequestType.LD.latency_hist_seqr::gmean            1                       (Unspecified)
system.ruby.RequestType.LD.latency_hist_seqr |           0      0.00%      0.00% |    17159893    100.00%    100.00% |           0      0.00%    100.00% |           0      0.00%    100.00% |           0      0.00%    100.00% |           0      0.00%    100.00% |           0      0.00%    100.00% |           0      0.00%    100.00% |           0      0.00%    100.00% |           0      0.00%    100.00% (Unspecified)
system.ruby.RequestType.LD.latency_hist_seqr::total     17159893                       (Unspecified)
system.ruby.RequestType.LD.hit_latency_hist_seqr::bucket_size            1                       (Unspecified)
system.ruby.RequestType.LD.hit_latency_hist_seqr::max_bucket            9                       (Unspecified)
system.ruby.RequestType.LD.hit_latency_hist_seqr::samples     17159893                       (Unspecified)
system.ruby.RequestType.LD.hit_latency_hist_seqr::mean            1                       (Unspecified)
system.ruby.RequestType.LD.hit_latency_hist_seqr::gmean            1                       (Unspecified)
system.ruby.RequestType.LD.hit_latency_hist_seqr |           0      0.00%      0.00% |    17159893    100.00%    100.00% |           0      0.00%    100.00% |           0      0.00%    100.00% |           0      0.00%    100.00% |           0      0.00%    100.00% |           0      0.00%    100.00% |           0      0.00%    100.00% |           0      0.00%    100.00% |           0      0.00%    100.00% (Unspecified)
system.ruby.RequestType.LD.hit_latency_hist_seqr::total     17159893                       (Unspecified)
system.ruby.RequestType.ST.latency_hist_seqr::bucket_size            1                       (Unspecified)
system.ruby.RequestType.ST.latency_hist_seqr::max_bucket            9                       (Unspecified)
system.ruby.RequestType.ST.latency_hist_seqr::samples     17160001                       (Unspecified)
system.ruby.RequestType.ST.latency_hist_seqr::mean            1                       (Unspecified)
system.ruby.RequestType.ST.latency_hist_seqr::gmean            1                       (Unspecified)
system.ruby.RequestType.ST.latency_hist_seqr |           0      0.00%      0.00% |    17160001    100.00%    100.00% |           0      0.00%    100.00% |           0      0.00%    100.00% |           0      0.00%    100.00% |           0      0.00%    100.00% |           0      0.00%    100.00% |           0      0.00%    100.00% |           0      0.00%    100.00% |           0      0.00%    100.00% (Unspecified)
system.ruby.RequestType.ST.latency_hist_seqr::total     17160001                       (Unspecified)
system.ruby.RequestType.ST.hit_latency_hist_seqr::bucket_size            1                       (Unspecified)
system.ruby.RequestType.ST.hit_latency_hist_seqr::max_bucket            9                       (Unspecified)
system.ruby.RequestType.ST.hit_latency_hist_seqr::samples     17160001                       (Unspecified)
system.ruby.RequestType.ST.hit_latency_hist_seqr::mean            1                       (Unspecified)
system.ruby.RequestType.ST.hit_latency_hist_seqr::gmean            1                       (Unspecified)
system.ruby.RequestType.ST.hit_latency_hist_seqr |           0      0.00%      0.00% |    17160001    100.00%    100.00% |           0      0.00%    100.00% |           0      0.00%    100.00% |           0      0.00%    100.00% |           0      0.00%    100.00% |           0      0.00%    100.00% |           0      0.00%    100.00% |           0      0.00%    100.00% |           0      0.00%    100.00% (Unspecified)
system.ruby.RequestType.ST.hit_latency_hist_seqr::total     17160001                       (Unspecified)
system.ruby.clk_domain.clock                      250                       # Clock period in ticks (Tick)
system.ruby.dir_cntrl0.power_state.pwrStateResidencyTicks::UNDEFINED   2147483750                       # Cumulative time (in ticks) in various power states (Tick)
system.ruby.dir_cntrl0.requestToDir.m_msg_count       267409                       # Number of messages passed the buffer (Count)
system.ruby.dir_cntrl0.requestToDir.m_buf_msgs     0.031131                       # Average number of messages in buffer ((Count/Tick))
system.ruby.dir_cntrl0.responseToDir.m_msg_count       167063                       # Number of messages passed the buffer (Count)
system.ruby.dir_cntrl0.responseToDir.m_buf_msgs     0.019449                       # Average number of messages in buffer ((Count/Tick))
system.ruby.dir_cntrl1.power_state.pwrStateResidencyTicks::UNDEFINED   2147483750                       # Cumulative time (in ticks) in various power states (Tick)
system.ruby.dir_cntrl1.requestToDir.m_msg_count       268480                       # Number of messages passed the buffer (Count)
system.ruby.dir_cntrl1.requestToDir.m_buf_msgs     0.031255                       # Average number of messages in buffer ((Count/Tick))
system.ruby.dir_cntrl1.responseToDir.m_msg_count       167312                       # Number of messages passed the buffer (Count)
system.ruby.dir_cntrl1.responseToDir.m_buf_msgs     0.019478                       # Average number of messages in buffer ((Count/Tick))
system.ruby.dir_cntrl10.power_state.pwrStateResidencyTicks::UNDEFINED   2147483750                       # Cumulative time (in ticks) in various power states (Tick)
system.ruby.dir_cntrl10.requestToDir.m_msg_count       268410                       # Number of messages passed the buffer (Count)
system.ruby.dir_cntrl10.requestToDir.m_buf_msgs     0.031247                       # Average number of messages in buffer ((Count/Tick))
system.ruby.dir_cntrl10.responseToDir.m_msg_count       166917                       # Number of messages passed the buffer (Count)
system.ruby.dir_cntrl10.responseToDir.m_buf_msgs     0.019432                       # Average number of messages in buffer ((Count/Tick))
system.ruby.dir_cntrl11.power_state.pwrStateResidencyTicks::UNDEFINED   2147483750                       # Cumulative time (in ticks) in various power states (Tick)
system.ruby.dir_cntrl11.requestToDir.m_msg_count       269243                       # Number of messages passed the buffer (Count)
system.ruby.dir_cntrl11.requestToDir.m_buf_msgs     0.031344                       # Average number of messages in buffer ((Count/Tick))
system.ruby.dir_cntrl11.responseToDir.m_msg_count       166824                       # Number of messages passed the buffer (Count)
system.ruby.dir_cntrl11.responseToDir.m_buf_msgs     0.019421                       # Average number of messages in buffer ((Count/Tick))
system.ruby.dir_cntrl12.power_state.pwrStateResidencyTicks::UNDEFINED   2147483750                       # Cumulative time (in ticks) in various power states (Tick)
system.ruby.dir_cntrl12.requestToDir.m_msg_count       268391                       # Number of messages passed the buffer (Count)
system.ruby.dir_cntrl12.requestToDir.m_buf_msgs     0.031245                       # Average number of messages in buffer ((Count/Tick))
system.ruby.dir_cntrl12.responseToDir.m_msg_count       167119                       # Number of messages passed the buffer (Count)
system.ruby.dir_cntrl12.responseToDir.m_buf_msgs     0.019455                       # Average number of messages in buffer ((Count/Tick))
system.ruby.dir_cntrl13.power_state.pwrStateResidencyTicks::UNDEFINED   2147483750                       # Cumulative time (in ticks) in various power states (Tick)
system.ruby.dir_cntrl13.requestToDir.m_msg_count       268030                       # Number of messages passed the buffer (Count)
system.ruby.dir_cntrl13.requestToDir.m_buf_msgs     0.031203                       # Average number of messages in buffer ((Count/Tick))
system.ruby.dir_cntrl13.responseToDir.m_msg_count       167718                       # Number of messages passed the buffer (Count)
system.ruby.dir_cntrl13.responseToDir.m_buf_msgs     0.019525                       # Average number of messages in buffer ((Count/Tick))
system.ruby.dir_cntrl14.power_state.pwrStateResidencyTicks::UNDEFINED   2147483750                       # Cumulative time (in ticks) in various power states (Tick)
system.ruby.dir_cntrl14.requestToDir.m_msg_count       267576                       # Number of messages passed the buffer (Count)
system.ruby.dir_cntrl14.requestToDir.m_buf_msgs     0.031150                       # Average number of messages in buffer ((Count/Tick))
system.ruby.dir_cntrl14.responseToDir.m_msg_count       167151                       # Number of messages passed the buffer (Count)
system.ruby.dir_cntrl14.responseToDir.m_buf_msgs     0.019459                       # Average number of messages in buffer ((Count/Tick))
system.ruby.dir_cntrl15.power_state.pwrStateResidencyTicks::UNDEFINED   2147483750                       # Cumulative time (in ticks) in various power states (Tick)
system.ruby.dir_cntrl15.requestToDir.m_msg_count       267956                       # Number of messages passed the buffer (Count)
system.ruby.dir_cntrl15.requestToDir.m_buf_msgs     0.031194                       # Average number of messages in buffer ((Count/Tick))
system.ruby.dir_cntrl15.responseToDir.m_msg_count       167332                       # Number of messages passed the buffer (Count)
system.ruby.dir_cntrl15.responseToDir.m_buf_msgs     0.019480                       # Average number of messages in buffer ((Count/Tick))
system.ruby.dir_cntrl16.power_state.pwrStateResidencyTicks::UNDEFINED   2147483750                       # Cumulative time (in ticks) in various power states (Tick)
system.ruby.dir_cntrl16.requestToDir.m_msg_count       267684                       # Number of messages passed the buffer (Count)
system.ruby.dir_cntrl16.requestToDir.m_buf_msgs     0.031163                       # Average number of messages in buffer ((Count/Tick))
system.ruby.dir_cntrl16.responseToDir.m_msg_count       167767                       # Number of messages passed the buffer (Count)
system.ruby.dir_cntrl16.responseToDir.m_buf_msgs     0.019531                       # Average number of messages in buffer ((Count/Tick))
system.ruby.dir_cntrl17.power_state.pwrStateResidencyTicks::UNDEFINED   2147483750                       # Cumulative time (in ticks) in various power states (Tick)
system.ruby.dir_cntrl17.requestToDir.m_msg_count       268372                       # Number of messages passed the buffer (Count)
system.ruby.dir_cntrl17.requestToDir.m_buf_msgs     0.031243                       # Average number of messages in buffer ((Count/Tick))
system.ruby.dir_cntrl17.responseToDir.m_msg_count       167300                       # Number of messages passed the buffer (Count)
system.ruby.dir_cntrl17.responseToDir.m_buf_msgs     0.019476                       # Average number of messages in buffer ((Count/Tick))
system.ruby.dir_cntrl18.power_state.pwrStateResidencyTicks::UNDEFINED   2147483750                       # Cumulative time (in ticks) in various power states (Tick)
system.ruby.dir_cntrl18.requestToDir.m_msg_count       268214                       # Number of messages passed the buffer (Count)
system.ruby.dir_cntrl18.requestToDir.m_buf_msgs     0.031224                       # Average number of messages in buffer ((Count/Tick))
system.ruby.dir_cntrl18.responseToDir.m_msg_count       167970                       # Number of messages passed the buffer (Count)
system.ruby.dir_cntrl18.responseToDir.m_buf_msgs     0.019554                       # Average number of messages in buffer ((Count/Tick))
system.ruby.dir_cntrl19.power_state.pwrStateResidencyTicks::UNDEFINED   2147483750                       # Cumulative time (in ticks) in various power states (Tick)
system.ruby.dir_cntrl19.requestToDir.m_msg_count       267828                       # Number of messages passed the buffer (Count)
system.ruby.dir_cntrl19.requestToDir.m_buf_msgs     0.031179                       # Average number of messages in buffer ((Count/Tick))
system.ruby.dir_cntrl19.responseToDir.m_msg_count       167062                       # Number of messages passed the buffer (Count)
system.ruby.dir_cntrl19.responseToDir.m_buf_msgs     0.019449                       # Average number of messages in buffer ((Count/Tick))
system.ruby.dir_cntrl2.power_state.pwrStateResidencyTicks::UNDEFINED   2147483750                       # Cumulative time (in ticks) in various power states (Tick)
system.ruby.dir_cntrl2.requestToDir.m_msg_count       268428                       # Number of messages passed the buffer (Count)
system.ruby.dir_cntrl2.requestToDir.m_buf_msgs     0.031249                       # Average number of messages in buffer ((Count/Tick))
system.ruby.dir_cntrl2.responseToDir.m_msg_count       166926                       # Number of messages passed the buffer (Count)
system.ruby.dir_cntrl2.responseToDir.m_buf_msgs     0.019433                       # Average number of messages in buffer ((Count/Tick))
system.ruby.dir_cntrl20.power_state.pwrStateResidencyTicks::UNDEFINED   2147483750                       # Cumulative time (in ticks) in various power states (Tick)
system.ruby.dir_cntrl20.requestToDir.m_msg_count       268220                       # Number of messages passed the buffer (Count)
system.ruby.dir_cntrl20.requestToDir.m_buf_msgs     0.031225                       # Average number of messages in buffer ((Count/Tick))
system.ruby.dir_cntrl20.responseToDir.m_msg_count       167126                       # Number of messages passed the buffer (Count)
system.ruby.dir_cntrl20.responseToDir.m_buf_msgs     0.019456                       # Average number of messages in buffer ((Count/Tick))
system.ruby.dir_cntrl21.power_state.pwrStateResidencyTicks::UNDEFINED   2147483750                       # Cumulative time (in ticks) in various power states (Tick)
system.ruby.dir_cntrl21.requestToDir.m_msg_count       268034                       # Number of messages passed the buffer (Count)
system.ruby.dir_cntrl21.requestToDir.m_buf_msgs     0.031203                       # Average number of messages in buffer ((Count/Tick))
system.ruby.dir_cntrl21.responseToDir.m_msg_count       167096                       # Number of messages passed the buffer (Count)
system.ruby.dir_cntrl21.responseToDir.m_buf_msgs     0.019453                       # Average number of messages in buffer ((Count/Tick))
system.ruby.dir_cntrl22.power_state.pwrStateResidencyTicks::UNDEFINED   2147483750                       # Cumulative time (in ticks) in various power states (Tick)
system.ruby.dir_cntrl22.requestToDir.m_msg_count       267953                       # Number of messages passed the buffer (Count)
system.ruby.dir_cntrl22.requestToDir.m_buf_msgs     0.031194                       # Average number of messages in buffer ((Count/Tick))
system.ruby.dir_cntrl22.responseToDir.m_msg_count       167026                       # Number of messages passed the buffer (Count)
system.ruby.dir_cntrl22.responseToDir.m_buf_msgs     0.019444                       # Average number of messages in buffer ((Count/Tick))
system.ruby.dir_cntrl23.power_state.pwrStateResidencyTicks::UNDEFINED   2147483750                       # Cumulative time (in ticks) in various power states (Tick)
system.ruby.dir_cntrl23.requestToDir.m_msg_count       268372                       # Number of messages passed the buffer (Count)
system.ruby.dir_cntrl23.requestToDir.m_buf_msgs     0.031243                       # Average number of messages in buffer ((Count/Tick))
system.ruby.dir_cntrl23.responseToDir.m_msg_count       167948                       # Number of messages passed the buffer (Count)
system.ruby.dir_cntrl23.responseToDir.m_buf_msgs     0.019552                       # Average number of messages in buffer ((Count/Tick))
system.ruby.dir_cntrl24.power_state.pwrStateResidencyTicks::UNDEFINED   2147483750                       # Cumulative time (in ticks) in various power states (Tick)
system.ruby.dir_cntrl24.requestToDir.m_msg_count       267825                       # Number of messages passed the buffer (Count)
system.ruby.dir_cntrl24.requestToDir.m_buf_msgs     0.031179                       # Average number of messages in buffer ((Count/Tick))
system.ruby.dir_cntrl24.responseToDir.m_msg_count       167323                       # Number of messages passed the buffer (Count)
system.ruby.dir_cntrl24.responseToDir.m_buf_msgs     0.019479                       # Average number of messages in buffer ((Count/Tick))
system.ruby.dir_cntrl25.power_state.pwrStateResidencyTicks::UNDEFINED   2147483750                       # Cumulative time (in ticks) in various power states (Tick)
system.ruby.dir_cntrl25.requestToDir.m_msg_count       268094                       # Number of messages passed the buffer (Count)
system.ruby.dir_cntrl25.requestToDir.m_buf_msgs     0.031210                       # Average number of messages in buffer ((Count/Tick))
system.ruby.dir_cntrl25.responseToDir.m_msg_count       167229                       # Number of messages passed the buffer (Count)
system.ruby.dir_cntrl25.responseToDir.m_buf_msgs     0.019468                       # Average number of messages in buffer ((Count/Tick))
system.ruby.dir_cntrl26.power_state.pwrStateResidencyTicks::UNDEFINED   2147483750                       # Cumulative time (in ticks) in various power states (Tick)
system.ruby.dir_cntrl26.requestToDir.m_msg_count       268131                       # Number of messages passed the buffer (Count)
system.ruby.dir_cntrl26.requestToDir.m_buf_msgs     0.031215                       # Average number of messages in buffer ((Count/Tick))
system.ruby.dir_cntrl26.responseToDir.m_msg_count       166986                       # Number of messages passed the buffer (Count)
system.ruby.dir_cntrl26.responseToDir.m_buf_msgs     0.019440                       # Average number of messages in buffer ((Count/Tick))
system.ruby.dir_cntrl27.power_state.pwrStateResidencyTicks::UNDEFINED   2147483750                       # Cumulative time (in ticks) in various power states (Tick)
system.ruby.dir_cntrl27.requestToDir.m_msg_count       267817                       # Number of messages passed the buffer (Count)
system.ruby.dir_cntrl27.requestToDir.m_buf_msgs     0.031178                       # Average number of messages in buffer ((Count/Tick))
system.ruby.dir_cntrl27.responseToDir.m_msg_count       166626                       # Number of messages passed the buffer (Count)
system.ruby.dir_cntrl27.responseToDir.m_buf_msgs     0.019398                       # Average number of messages in buffer ((Count/Tick))
system.ruby.dir_cntrl28.power_state.pwrStateResidencyTicks::UNDEFINED   2147483750                       # Cumulative time (in ticks) in various power states (Tick)
system.ruby.dir_cntrl28.requestToDir.m_msg_count       267997                       # Number of messages passed the buffer (Count)
system.ruby.dir_cntrl28.requestToDir.m_buf_msgs     0.031199                       # Average number of messages in buffer ((Count/Tick))
system.ruby.dir_cntrl28.responseToDir.m_msg_count       166526                       # Number of messages passed the buffer (Count)
system.ruby.dir_cntrl28.responseToDir.m_buf_msgs     0.019386                       # Average number of messages in buffer ((Count/Tick))
system.ruby.dir_cntrl29.power_state.pwrStateResidencyTicks::UNDEFINED   2147483750                       # Cumulative time (in ticks) in various power states (Tick)
system.ruby.dir_cntrl29.requestToDir.m_msg_count       267785                       # Number of messages passed the buffer (Count)
system.ruby.dir_cntrl29.requestToDir.m_buf_msgs     0.031174                       # Average number of messages in buffer ((Count/Tick))
system.ruby.dir_cntrl29.responseToDir.m_msg_count       166695                       # Number of messages passed the buffer (Count)
system.ruby.dir_cntrl29.responseToDir.m_buf_msgs     0.019406                       # Average number of messages in buffer ((Count/Tick))
system.ruby.dir_cntrl3.power_state.pwrStateResidencyTicks::UNDEFINED   2147483750                       # Cumulative time (in ticks) in various power states (Tick)
system.ruby.dir_cntrl3.requestToDir.m_msg_count       268896                       # Number of messages passed the buffer (Count)
system.ruby.dir_cntrl3.requestToDir.m_buf_msgs     0.031304                       # Average number of messages in buffer ((Count/Tick))
system.ruby.dir_cntrl3.responseToDir.m_msg_count       167644                       # Number of messages passed the buffer (Count)
system.ruby.dir_cntrl3.responseToDir.m_buf_msgs     0.019516                       # Average number of messages in buffer ((Count/Tick))
system.ruby.dir_cntrl30.power_state.pwrStateResidencyTicks::UNDEFINED   2147483750                       # Cumulative time (in ticks) in various power states (Tick)
system.ruby.dir_cntrl30.requestToDir.m_msg_count       269267                       # Number of messages passed the buffer (Count)
system.ruby.dir_cntrl30.requestToDir.m_buf_msgs     0.031347                       # Average number of messages in buffer ((Count/Tick))
system.ruby.dir_cntrl30.responseToDir.m_msg_count       167512                       # Number of messages passed the buffer (Count)
system.ruby.dir_cntrl30.responseToDir.m_buf_msgs     0.019501                       # Average number of messages in buffer ((Count/Tick))
system.ruby.dir_cntrl31.power_state.pwrStateResidencyTicks::UNDEFINED   2147483750                       # Cumulative time (in ticks) in various power states (Tick)
system.ruby.dir_cntrl31.requestToDir.m_msg_count       267953                       # Number of messages passed the buffer (Count)
system.ruby.dir_cntrl31.requestToDir.m_buf_msgs     0.031194                       # Average number of messages in buffer ((Count/Tick))
system.ruby.dir_cntrl31.responseToDir.m_msg_count       167011                       # Number of messages passed the buffer (Count)
system.ruby.dir_cntrl31.responseToDir.m_buf_msgs     0.019443                       # Average number of messages in buffer ((Count/Tick))
system.ruby.dir_cntrl32.power_state.pwrStateResidencyTicks::UNDEFINED   2147483750                       # Cumulative time (in ticks) in various power states (Tick)
system.ruby.dir_cntrl32.requestToDir.m_msg_count       267295                       # Number of messages passed the buffer (Count)
system.ruby.dir_cntrl32.requestToDir.m_buf_msgs     0.031117                       # Average number of messages in buffer ((Count/Tick))
system.ruby.dir_cntrl32.responseToDir.m_msg_count       168018                       # Number of messages passed the buffer (Count)
system.ruby.dir_cntrl32.responseToDir.m_buf_msgs     0.019560                       # Average number of messages in buffer ((Count/Tick))
system.ruby.dir_cntrl33.power_state.pwrStateResidencyTicks::UNDEFINED   2147483750                       # Cumulative time (in ticks) in various power states (Tick)
system.ruby.dir_cntrl33.requestToDir.m_msg_count       267641                       # Number of messages passed the buffer (Count)
system.ruby.dir_cntrl33.requestToDir.m_buf_msgs     0.031158                       # Average number of messages in buffer ((Count/Tick))
system.ruby.dir_cntrl33.responseToDir.m_msg_count       166834                       # Number of messages passed the buffer (Count)
system.ruby.dir_cntrl33.responseToDir.m_buf_msgs     0.019422                       # Average number of messages in buffer ((Count/Tick))
system.ruby.dir_cntrl34.power_state.pwrStateResidencyTicks::UNDEFINED   2147483750                       # Cumulative time (in ticks) in various power states (Tick)
system.ruby.dir_cntrl34.requestToDir.m_msg_count       268221                       # Number of messages passed the buffer (Count)
system.ruby.dir_cntrl34.requestToDir.m_buf_msgs     0.031225                       # Average number of messages in buffer ((Count/Tick))
system.ruby.dir_cntrl34.responseToDir.m_msg_count       167181                       # Number of messages passed the buffer (Count)
system.ruby.dir_cntrl34.responseToDir.m_buf_msgs     0.019462                       # Average number of messages in buffer ((Count/Tick))
system.ruby.dir_cntrl35.power_state.pwrStateResidencyTicks::UNDEFINED   2147483750                       # Cumulative time (in ticks) in various power states (Tick)
system.ruby.dir_cntrl35.requestToDir.m_msg_count       268466                       # Number of messages passed the buffer (Count)
system.ruby.dir_cntrl35.requestToDir.m_buf_msgs     0.031254                       # Average number of messages in buffer ((Count/Tick))
system.ruby.dir_cntrl35.responseToDir.m_msg_count       167093                       # Number of messages passed the buffer (Count)
system.ruby.dir_cntrl35.responseToDir.m_buf_msgs     0.019452                       # Average number of messages in buffer ((Count/Tick))
system.ruby.dir_cntrl36.power_state.pwrStateResidencyTicks::UNDEFINED   2147483750                       # Cumulative time (in ticks) in various power states (Tick)
system.ruby.dir_cntrl36.requestToDir.m_msg_count       268502                       # Number of messages passed the buffer (Count)
system.ruby.dir_cntrl36.requestToDir.m_buf_msgs     0.031258                       # Average number of messages in buffer ((Count/Tick))
system.ruby.dir_cntrl36.responseToDir.m_msg_count       166109                       # Number of messages passed the buffer (Count)
system.ruby.dir_cntrl36.responseToDir.m_buf_msgs     0.019338                       # Average number of messages in buffer ((Count/Tick))
system.ruby.dir_cntrl37.power_state.pwrStateResidencyTicks::UNDEFINED   2147483750                       # Cumulative time (in ticks) in various power states (Tick)
system.ruby.dir_cntrl37.requestToDir.m_msg_count       268799                       # Number of messages passed the buffer (Count)
system.ruby.dir_cntrl37.requestToDir.m_buf_msgs     0.031292                       # Average number of messages in buffer ((Count/Tick))
system.ruby.dir_cntrl37.responseToDir.m_msg_count       167305                       # Number of messages passed the buffer (Count)
system.ruby.dir_cntrl37.responseToDir.m_buf_msgs     0.019477                       # Average number of messages in buffer ((Count/Tick))
system.ruby.dir_cntrl38.power_state.pwrStateResidencyTicks::UNDEFINED   2147483750                       # Cumulative time (in ticks) in various power states (Tick)
system.ruby.dir_cntrl38.requestToDir.m_msg_count       268377                       # Number of messages passed the buffer (Count)
system.ruby.dir_cntrl38.requestToDir.m_buf_msgs     0.031243                       # Average number of messages in buffer ((Count/Tick))
system.ruby.dir_cntrl38.responseToDir.m_msg_count       167351                       # Number of messages passed the buffer (Count)
system.ruby.dir_cntrl38.responseToDir.m_buf_msgs     0.019482                       # Average number of messages in buffer ((Count/Tick))
system.ruby.dir_cntrl39.power_state.pwrStateResidencyTicks::UNDEFINED   2147483750                       # Cumulative time (in ticks) in various power states (Tick)
system.ruby.dir_cntrl39.requestToDir.m_msg_count       268009                       # Number of messages passed the buffer (Count)
system.ruby.dir_cntrl39.requestToDir.m_buf_msgs     0.031200                       # Average number of messages in buffer ((Count/Tick))
system.ruby.dir_cntrl39.responseToDir.m_msg_count       166702                       # Number of messages passed the buffer (Count)
system.ruby.dir_cntrl39.responseToDir.m_buf_msgs     0.019407                       # Average number of messages in buffer ((Count/Tick))
system.ruby.dir_cntrl4.power_state.pwrStateResidencyTicks::UNDEFINED   2147483750                       # Cumulative time (in ticks) in various power states (Tick)
system.ruby.dir_cntrl4.requestToDir.m_msg_count       267966                       # Number of messages passed the buffer (Count)
system.ruby.dir_cntrl4.requestToDir.m_buf_msgs     0.031195                       # Average number of messages in buffer ((Count/Tick))
system.ruby.dir_cntrl4.responseToDir.m_msg_count       167855                       # Number of messages passed the buffer (Count)
system.ruby.dir_cntrl4.responseToDir.m_buf_msgs     0.019541                       # Average number of messages in buffer ((Count/Tick))
system.ruby.dir_cntrl40.power_state.pwrStateResidencyTicks::UNDEFINED   2147483750                       # Cumulative time (in ticks) in various power states (Tick)
system.ruby.dir_cntrl40.requestToDir.m_msg_count       268414                       # Number of messages passed the buffer (Count)
system.ruby.dir_cntrl40.requestToDir.m_buf_msgs     0.031248                       # Average number of messages in buffer ((Count/Tick))
system.ruby.dir_cntrl40.responseToDir.m_msg_count       168213                       # Number of messages passed the buffer (Count)
system.ruby.dir_cntrl40.responseToDir.m_buf_msgs     0.019583                       # Average number of messages in buffer ((Count/Tick))
system.ruby.dir_cntrl41.power_state.pwrStateResidencyTicks::UNDEFINED   2147483750                       # Cumulative time (in ticks) in various power states (Tick)
system.ruby.dir_cntrl41.requestToDir.m_msg_count       267516                       # Number of messages passed the buffer (Count)
system.ruby.dir_cntrl41.requestToDir.m_buf_msgs     0.031143                       # Average number of messages in buffer ((Count/Tick))
system.ruby.dir_cntrl41.responseToDir.m_msg_count       167546                       # Number of messages passed the buffer (Count)
system.ruby.dir_cntrl41.responseToDir.m_buf_msgs     0.019505                       # Average number of messages in buffer ((Count/Tick))
system.ruby.dir_cntrl42.power_state.pwrStateResidencyTicks::UNDEFINED   2147483750                       # Cumulative time (in ticks) in various power states (Tick)
system.ruby.dir_cntrl42.requestToDir.m_msg_count       268250                       # Number of messages passed the buffer (Count)
system.ruby.dir_cntrl42.requestToDir.m_buf_msgs     0.031228                       # Average number of messages in buffer ((Count/Tick))
system.ruby.dir_cntrl42.responseToDir.m_msg_count       167684                       # Number of messages passed the buffer (Count)
system.ruby.dir_cntrl42.responseToDir.m_buf_msgs     0.019521                       # Average number of messages in buffer ((Count/Tick))
system.ruby.dir_cntrl43.power_state.pwrStateResidencyTicks::UNDEFINED   2147483750                       # Cumulative time (in ticks) in various power states (Tick)
system.ruby.dir_cntrl43.requestToDir.m_msg_count       267800                       # Number of messages passed the buffer (Count)
system.ruby.dir_cntrl43.requestToDir.m_buf_msgs     0.031176                       # Average number of messages in buffer ((Count/Tick))
system.ruby.dir_cntrl43.responseToDir.m_msg_count       166679                       # Number of messages passed the buffer (Count)
system.ruby.dir_cntrl43.responseToDir.m_buf_msgs     0.019404                       # Average number of messages in buffer ((Count/Tick))
system.ruby.dir_cntrl44.power_state.pwrStateResidencyTicks::UNDEFINED   2147483750                       # Cumulative time (in ticks) in various power states (Tick)
system.ruby.dir_cntrl44.requestToDir.m_msg_count       268416                       # Number of messages passed the buffer (Count)
system.ruby.dir_cntrl44.requestToDir.m_buf_msgs     0.031248                       # Average number of messages in buffer ((Count/Tick))
system.ruby.dir_cntrl44.responseToDir.m_msg_count       167114                       # Number of messages passed the buffer (Count)
system.ruby.dir_cntrl44.responseToDir.m_buf_msgs     0.019455                       # Average number of messages in buffer ((Count/Tick))
system.ruby.dir_cntrl45.power_state.pwrStateResidencyTicks::UNDEFINED   2147483750                       # Cumulative time (in ticks) in various power states (Tick)
system.ruby.dir_cntrl45.requestToDir.m_msg_count       268939                       # Number of messages passed the buffer (Count)
system.ruby.dir_cntrl45.requestToDir.m_buf_msgs     0.031309                       # Average number of messages in buffer ((Count/Tick))
system.ruby.dir_cntrl45.responseToDir.m_msg_count       167214                       # Number of messages passed the buffer (Count)
system.ruby.dir_cntrl45.responseToDir.m_buf_msgs     0.019466                       # Average number of messages in buffer ((Count/Tick))
system.ruby.dir_cntrl46.power_state.pwrStateResidencyTicks::UNDEFINED   2147483750                       # Cumulative time (in ticks) in various power states (Tick)
system.ruby.dir_cntrl46.requestToDir.m_msg_count       268154                       # Number of messages passed the buffer (Count)
system.ruby.dir_cntrl46.requestToDir.m_buf_msgs     0.031217                       # Average number of messages in buffer ((Count/Tick))
system.ruby.dir_cntrl46.responseToDir.m_msg_count       167807                       # Number of messages passed the buffer (Count)
system.ruby.dir_cntrl46.responseToDir.m_buf_msgs     0.019535                       # Average number of messages in buffer ((Count/Tick))
system.ruby.dir_cntrl47.power_state.pwrStateResidencyTicks::UNDEFINED   2147483750                       # Cumulative time (in ticks) in various power states (Tick)
system.ruby.dir_cntrl47.requestToDir.m_msg_count       267907                       # Number of messages passed the buffer (Count)
system.ruby.dir_cntrl47.requestToDir.m_buf_msgs     0.031188                       # Average number of messages in buffer ((Count/Tick))
system.ruby.dir_cntrl47.responseToDir.m_msg_count       167175                       # Number of messages passed the buffer (Count)
system.ruby.dir_cntrl47.responseToDir.m_buf_msgs     0.019462                       # Average number of messages in buffer ((Count/Tick))
system.ruby.dir_cntrl48.power_state.pwrStateResidencyTicks::UNDEFINED   2147483750                       # Cumulative time (in ticks) in various power states (Tick)
system.ruby.dir_cntrl48.requestToDir.m_msg_count       267240                       # Number of messages passed the buffer (Count)
system.ruby.dir_cntrl48.requestToDir.m_buf_msgs     0.031111                       # Average number of messages in buffer ((Count/Tick))
system.ruby.dir_cntrl48.responseToDir.m_msg_count       167406                       # Number of messages passed the buffer (Count)
system.ruby.dir_cntrl48.responseToDir.m_buf_msgs     0.019489                       # Average number of messages in buffer ((Count/Tick))
system.ruby.dir_cntrl49.power_state.pwrStateResidencyTicks::UNDEFINED   2147483750                       # Cumulative time (in ticks) in various power states (Tick)
system.ruby.dir_cntrl49.requestToDir.m_msg_count       268609                       # Number of messages passed the buffer (Count)
system.ruby.dir_cntrl49.requestToDir.m_buf_msgs     0.031270                       # Average number of messages in buffer ((Count/Tick))
system.ruby.dir_cntrl49.responseToDir.m_msg_count       166841                       # Number of messages passed the buffer (Count)
system.ruby.dir_cntrl49.responseToDir.m_buf_msgs     0.019423                       # Average number of messages in buffer ((Count/Tick))
system.ruby.dir_cntrl5.power_state.pwrStateResidencyTicks::UNDEFINED   2147483750                       # Cumulative time (in ticks) in various power states (Tick)
system.ruby.dir_cntrl5.requestToDir.m_msg_count       267239                       # Number of messages passed the buffer (Count)
system.ruby.dir_cntrl5.requestToDir.m_buf_msgs     0.031111                       # Average number of messages in buffer ((Count/Tick))
system.ruby.dir_cntrl5.responseToDir.m_msg_count       166913                       # Number of messages passed the buffer (Count)
system.ruby.dir_cntrl5.responseToDir.m_buf_msgs     0.019431                       # Average number of messages in buffer ((Count/Tick))
system.ruby.dir_cntrl50.power_state.pwrStateResidencyTicks::UNDEFINED   2147483750                       # Cumulative time (in ticks) in various power states (Tick)
system.ruby.dir_cntrl50.requestToDir.m_msg_count       267483                       # Number of messages passed the buffer (Count)
system.ruby.dir_cntrl50.requestToDir.m_buf_msgs     0.031139                       # Average number of messages in buffer ((Count/Tick))
system.ruby.dir_cntrl50.responseToDir.m_msg_count       166847                       # Number of messages passed the buffer (Count)
system.ruby.dir_cntrl50.responseToDir.m_buf_msgs     0.019424                       # Average number of messages in buffer ((Count/Tick))
system.ruby.dir_cntrl51.power_state.pwrStateResidencyTicks::UNDEFINED   2147483750                       # Cumulative time (in ticks) in various power states (Tick)
system.ruby.dir_cntrl51.requestToDir.m_msg_count       268577                       # Number of messages passed the buffer (Count)
system.ruby.dir_cntrl51.requestToDir.m_buf_msgs     0.031266                       # Average number of messages in buffer ((Count/Tick))
system.ruby.dir_cntrl51.responseToDir.m_msg_count       167253                       # Number of messages passed the buffer (Count)
system.ruby.dir_cntrl51.responseToDir.m_buf_msgs     0.019471                       # Average number of messages in buffer ((Count/Tick))
system.ruby.dir_cntrl52.power_state.pwrStateResidencyTicks::UNDEFINED   2147483750                       # Cumulative time (in ticks) in various power states (Tick)
system.ruby.dir_cntrl52.requestToDir.m_msg_count       267945                       # Number of messages passed the buffer (Count)
system.ruby.dir_cntrl52.requestToDir.m_buf_msgs     0.031193                       # Average number of messages in buffer ((Count/Tick))
system.ruby.dir_cntrl52.responseToDir.m_msg_count       167218                       # Number of messages passed the buffer (Count)
system.ruby.dir_cntrl52.responseToDir.m_buf_msgs     0.019467                       # Average number of messages in buffer ((Count/Tick))
system.ruby.dir_cntrl53.power_state.pwrStateResidencyTicks::UNDEFINED   2147483750                       # Cumulative time (in ticks) in various power states (Tick)
system.ruby.dir_cntrl53.requestToDir.m_msg_count       268262                       # Number of messages passed the buffer (Count)
system.ruby.dir_cntrl53.requestToDir.m_buf_msgs     0.031230                       # Average number of messages in buffer ((Count/Tick))
system.ruby.dir_cntrl53.responseToDir.m_msg_count       166863                       # Number of messages passed the buffer (Count)
system.ruby.dir_cntrl53.responseToDir.m_buf_msgs     0.019425                       # Average number of messages in buffer ((Count/Tick))
system.ruby.dir_cntrl54.power_state.pwrStateResidencyTicks::UNDEFINED   2147483750                       # Cumulative time (in ticks) in various power states (Tick)
system.ruby.dir_cntrl54.requestToDir.m_msg_count       267061                       # Number of messages passed the buffer (Count)
system.ruby.dir_cntrl54.requestToDir.m_buf_msgs     0.031090                       # Average number of messages in buffer ((Count/Tick))
system.ruby.dir_cntrl54.responseToDir.m_msg_count       167169                       # Number of messages passed the buffer (Count)
system.ruby.dir_cntrl54.responseToDir.m_buf_msgs     0.019461                       # Average number of messages in buffer ((Count/Tick))
system.ruby.dir_cntrl55.power_state.pwrStateResidencyTicks::UNDEFINED   2147483750                       # Cumulative time (in ticks) in various power states (Tick)
system.ruby.dir_cntrl55.requestToDir.m_msg_count       268215                       # Number of messages passed the buffer (Count)
system.ruby.dir_cntrl55.requestToDir.m_buf_msgs     0.031224                       # Average number of messages in buffer ((Count/Tick))
system.ruby.dir_cntrl55.responseToDir.m_msg_count       167807                       # Number of messages passed the buffer (Count)
system.ruby.dir_cntrl55.responseToDir.m_buf_msgs     0.019535                       # Average number of messages in buffer ((Count/Tick))
system.ruby.dir_cntrl56.power_state.pwrStateResidencyTicks::UNDEFINED   2147483750                       # Cumulative time (in ticks) in various power states (Tick)
system.ruby.dir_cntrl56.requestToDir.m_msg_count       268002                       # Number of messages passed the buffer (Count)
system.ruby.dir_cntrl56.requestToDir.m_buf_msgs     0.031200                       # Average number of messages in buffer ((Count/Tick))
system.ruby.dir_cntrl56.responseToDir.m_msg_count       166955                       # Number of messages passed the buffer (Count)
system.ruby.dir_cntrl56.responseToDir.m_buf_msgs     0.019436                       # Average number of messages in buffer ((Count/Tick))
system.ruby.dir_cntrl57.power_state.pwrStateResidencyTicks::UNDEFINED   2147483750                       # Cumulative time (in ticks) in various power states (Tick)
system.ruby.dir_cntrl57.requestToDir.m_msg_count       267526                       # Number of messages passed the buffer (Count)
system.ruby.dir_cntrl57.requestToDir.m_buf_msgs     0.031144                       # Average number of messages in buffer ((Count/Tick))
system.ruby.dir_cntrl57.responseToDir.m_msg_count       167417                       # Number of messages passed the buffer (Count)
system.ruby.dir_cntrl57.responseToDir.m_buf_msgs     0.019490                       # Average number of messages in buffer ((Count/Tick))
system.ruby.dir_cntrl58.power_state.pwrStateResidencyTicks::UNDEFINED   2147483750                       # Cumulative time (in ticks) in various power states (Tick)
system.ruby.dir_cntrl58.requestToDir.m_msg_count       267944                       # Number of messages passed the buffer (Count)
system.ruby.dir_cntrl58.requestToDir.m_buf_msgs     0.031193                       # Average number of messages in buffer ((Count/Tick))
system.ruby.dir_cntrl58.responseToDir.m_msg_count       167803                       # Number of messages passed the buffer (Count)
system.ruby.dir_cntrl58.responseToDir.m_buf_msgs     0.019535                       # Average number of messages in buffer ((Count/Tick))
system.ruby.dir_cntrl59.power_state.pwrStateResidencyTicks::UNDEFINED   2147483750                       # Cumulative time (in ticks) in various power states (Tick)
system.ruby.dir_cntrl59.requestToDir.m_msg_count       268004                       # Number of messages passed the buffer (Count)
system.ruby.dir_cntrl59.requestToDir.m_buf_msgs     0.031200                       # Average number of messages in buffer ((Count/Tick))
[...]
system.ruby.network.sankey.vcvn13.vcvn5             0                       (Unspecified)
system.ruby.network.sankey.vcvn13.vcvn6             0                       (Unspecified)
system.ruby.network.sankey.vcvn13.vcvn7             0                       (Unspecified)
system.ruby.network.sankey.vcvn13.vcvn8             0                       (Unspecified)
system.ruby.network.sankey.vcvn13.vcvn9             0                       (Unspecified)
system.ruby.network.sankey.vcvn14.vcvn0             0                       (Unspecified)
system.ruby.network.sankey.vcvn14.vcvn1             0                       (Unspecified)
system.ruby.network.sankey.vcvn14.vcvn10            0                       (Unspecified)
system.ruby.network.sankey.vcvn14.vcvn11            0                       (Unspecified)
system.ruby.network.sankey.vcvn14.vcvn12            0                       (Unspecified)
system.ruby.network.sankey.vcvn14.vcvn13            0                       (Unspecified)
system.ruby.network.sankey.vcvn14.vcvn14      6107370                       (Unspecified)
system.ruby.network.sankey.vcvn14.vcvn15            0                       (Unspecified)
system.ruby.network.sankey.vcvn14.vcvn16            0                       (Unspecified)
system.ruby.network.sankey.vcvn14.vcvn17            0                       (Unspecified)
system.ruby.network.sankey.vcvn14.vcvn2             0                       (Unspecified)
system.ruby.network.sankey.vcvn14.vcvn3             0                       (Unspecified)
system.ruby.network.sankey.vcvn14.vcvn4             0                       (Unspecified)
system.ruby.network.sankey.vcvn14.vcvn5             0                       (Unspecified)
system.ruby.network.sankey.vcvn14.vcvn6             0                       (Unspecified)
system.ruby.network.sankey.vcvn14.vcvn7             0                       (Unspecified)
system.ruby.network.sankey.vcvn14.vcvn8             0                       (Unspecified)
system.ruby.network.sankey.vcvn14.vcvn9             0                       (Unspecified)
system.ruby.network.sankey.vcvn15.vcvn0             0                       (Unspecified)
system.ruby.network.sankey.vcvn15.vcvn1             0                       (Unspecified)
system.ruby.network.sankey.vcvn15.vcvn10            0                       (Unspecified)
system.ruby.network.sankey.vcvn15.vcvn11            0                       (Unspecified)
system.ruby.network.sankey.vcvn15.vcvn12            0                       (Unspecified)
system.ruby.network.sankey.vcvn15.vcvn13            0                       (Unspecified)
system.ruby.network.sankey.vcvn15.vcvn14            0                       (Unspecified)
system.ruby.network.sankey.vcvn15.vcvn15      2139883                       (Unspecified)
system.ruby.network.sankey.vcvn15.vcvn16            0                       (Unspecified)
system.ruby.network.sankey.vcvn15.vcvn17            0                       (Unspecified)
system.ruby.network.sankey.vcvn15.vcvn2             0                       (Unspecified)
system.ruby.network.sankey.vcvn15.vcvn3             0                       (Unspecified)
system.ruby.network.sankey.vcvn15.vcvn4             0                       (Unspecified)
system.ruby.network.sankey.vcvn15.vcvn5             0                       (Unspecified)
system.ruby.network.sankey.vcvn15.vcvn6             0                       (Unspecified)
system.ruby.network.sankey.vcvn15.vcvn7             0                       (Unspecified)
system.ruby.network.sankey.vcvn15.vcvn8             0                       (Unspecified)
system.ruby.network.sankey.vcvn15.vcvn9             0                       (Unspecified)
system.ruby.network.sankey.vcvn16.vcvn0             0                       (Unspecified)
system.ruby.network.sankey.vcvn16.vcvn1             0                       (Unspecified)
system.ruby.network.sankey.vcvn16.vcvn10            0                       (Unspecified)
system.ruby.network.sankey.vcvn16.vcvn11            0                       (Unspecified)
system.ruby.network.sankey.vcvn16.vcvn12            0                       (Unspecified)
system.ruby.network.sankey.vcvn16.vcvn13            0                       (Unspecified)
system.ruby.network.sankey.vcvn16.vcvn14            0                       (Unspecified)
system.ruby.network.sankey.vcvn16.vcvn15            0                       (Unspecified)
system.ruby.network.sankey.vcvn16.vcvn16      3811537                       (Unspecified)
system.ruby.network.sankey.vcvn16.vcvn17            0                       (Unspecified)
system.ruby.network.sankey.vcvn16.vcvn2             0                       (Unspecified)
system.ruby.network.sankey.vcvn16.vcvn3             0                       (Unspecified)
system.ruby.network.sankey.vcvn16.vcvn4             0                       (Unspecified)
system.ruby.network.sankey.vcvn16.vcvn5             0                       (Unspecified)
system.ruby.network.sankey.vcvn16.vcvn6             0                       (Unspecified)
system.ruby.network.sankey.vcvn16.vcvn7             0                       (Unspecified)
system.ruby.network.sankey.vcvn16.vcvn8             0                       (Unspecified)
system.ruby.network.sankey.vcvn16.vcvn9             0                       (Unspecified)
system.ruby.network.sankey.vcvn17.vcvn0             0                       (Unspecified)
system.ruby.network.sankey.vcvn17.vcvn1             0                       (Unspecified)
system.ruby.network.sankey.vcvn17.vcvn10            0                       (Unspecified)
system.ruby.network.sankey.vcvn17.vcvn11            0                       (Unspecified)
system.ruby.network.sankey.vcvn17.vcvn12            0                       (Unspecified)
system.ruby.network.sankey.vcvn17.vcvn13            0                       (Unspecified)
system.ruby.network.sankey.vcvn17.vcvn14            0                       (Unspecified)
system.ruby.network.sankey.vcvn17.vcvn15            0                       (Unspecified)
system.ruby.network.sankey.vcvn17.vcvn16            0                       (Unspecified)
system.ruby.network.sankey.vcvn17.vcvn17      4465939                       (Unspecified)
system.ruby.network.sankey.vcvn17.vcvn2             0                       (Unspecified)
system.ruby.network.sankey.vcvn17.vcvn3             0                       (Unspecified)
system.ruby.network.sankey.vcvn17.vcvn4             0                       (Unspecified)
system.ruby.network.sankey.vcvn17.vcvn5             0                       (Unspecified)
system.ruby.network.sankey.vcvn17.vcvn6             0                       (Unspecified)
system.ruby.network.sankey.vcvn17.vcvn7             0                       (Unspecified)
system.ruby.network.sankey.vcvn17.vcvn8             0                       (Unspecified)
system.ruby.network.sankey.vcvn17.vcvn9             0                       (Unspecified)
system.ruby.network.sankey.vcvn2.vcvn0              0                       (Unspecified)
system.ruby.network.sankey.vcvn2.vcvn1              0                       (Unspecified)
system.ruby.network.sankey.vcvn2.vcvn10             0                       (Unspecified)
system.ruby.network.sankey.vcvn2.vcvn11             0                       (Unspecified)
system.ruby.network.sankey.vcvn2.vcvn12             0                       (Unspecified)
system.ruby.network.sankey.vcvn2.vcvn13             0                       (Unspecified)
system.ruby.network.sankey.vcvn2.vcvn14             0                       (Unspecified)
system.ruby.network.sankey.vcvn2.vcvn15             0                       (Unspecified)
system.ruby.network.sankey.vcvn2.vcvn16             0                       (Unspecified)
system.ruby.network.sankey.vcvn2.vcvn17             0                       (Unspecified)
system.ruby.network.sankey.vcvn2.vcvn2        3401528                       (Unspecified)
system.ruby.network.sankey.vcvn2.vcvn3              0                       (Unspecified)
system.ruby.network.sankey.vcvn2.vcvn4              0                       (Unspecified)
system.ruby.network.sankey.vcvn2.vcvn5              0                       (Unspecified)
system.ruby.network.sankey.vcvn2.vcvn6              0                       (Unspecified)
system.ruby.network.sankey.vcvn2.vcvn7              0                       (Unspecified)
system.ruby.network.sankey.vcvn2.vcvn8              0                       (Unspecified)
system.ruby.network.sankey.vcvn2.vcvn9              0                       (Unspecified)
system.ruby.network.sankey.vcvn3.vcvn0              0                       (Unspecified)
system.ruby.network.sankey.vcvn3.vcvn1              0                       (Unspecified)
system.ruby.network.sankey.vcvn3.vcvn10             0                       (Unspecified)
system.ruby.network.sankey.vcvn3.vcvn11             0                       (Unspecified)
system.ruby.network.sankey.vcvn3.vcvn12             0                       (Unspecified)
system.ruby.network.sankey.vcvn3.vcvn13             0                       (Unspecified)
system.ruby.network.sankey.vcvn3.vcvn14             0                       (Unspecified)
system.ruby.network.sankey.vcvn3.vcvn15             0                       (Unspecified)
system.ruby.network.sankey.vcvn3.vcvn16             0                       (Unspecified)
system.ruby.network.sankey.vcvn3.vcvn17             0                       (Unspecified)
system.ruby.network.sankey.vcvn3.vcvn2              0                       (Unspecified)
system.ruby.network.sankey.vcvn3.vcvn3        1901214                       (Unspecified)
system.ruby.network.sankey.vcvn3.vcvn4              0                       (Unspecified)
system.ruby.network.sankey.vcvn3.vcvn5              0                       (Unspecified)
system.ruby.network.sankey.vcvn3.vcvn6              0                       (Unspecified)
system.ruby.network.sankey.vcvn3.vcvn7              0                       (Unspecified)
system.ruby.network.sankey.vcvn3.vcvn8              0                       (Unspecified)
system.ruby.network.sankey.vcvn3.vcvn9              0                       (Unspecified)
system.ruby.network.sankey.vcvn4.vcvn0              0                       (Unspecified)
system.ruby.network.sankey.vcvn4.vcvn1              0                       (Unspecified)
system.ruby.network.sankey.vcvn4.vcvn10             0                       (Unspecified)
system.ruby.network.sankey.vcvn4.vcvn11             0                       (Unspecified)
system.ruby.network.sankey.vcvn4.vcvn12             0                       (Unspecified)
system.ruby.network.sankey.vcvn4.vcvn13             0                       (Unspecified)
system.ruby.network.sankey.vcvn4.vcvn14             0                       (Unspecified)
system.ruby.network.sankey.vcvn4.vcvn15             0                       (Unspecified)
system.ruby.network.sankey.vcvn4.vcvn16             0                       (Unspecified)
system.ruby.network.sankey.vcvn4.vcvn17             0                       (Unspecified)
system.ruby.network.sankey.vcvn4.vcvn2              0                       (Unspecified)
system.ruby.network.sankey.vcvn4.vcvn3              0                       (Unspecified)
system.ruby.network.sankey.vcvn4.vcvn4        2716681                       (Unspecified)
system.ruby.network.sankey.vcvn4.vcvn5              0                       (Unspecified)
system.ruby.network.sankey.vcvn4.vcvn6              0                       (Unspecified)
system.ruby.network.sankey.vcvn4.vcvn7              0                       (Unspecified)
system.ruby.network.sankey.vcvn4.vcvn8              0                       (Unspecified)
system.ruby.network.sankey.vcvn4.vcvn9              0                       (Unspecified)
system.ruby.network.sankey.vcvn5.vcvn0              0                       (Unspecified)
system.ruby.network.sankey.vcvn5.vcvn1              0                       (Unspecified)
system.ruby.network.sankey.vcvn5.vcvn10             0                       (Unspecified)
system.ruby.network.sankey.vcvn5.vcvn11             0                       (Unspecified)
system.ruby.network.sankey.vcvn5.vcvn12             0                       (Unspecified)
system.ruby.network.sankey.vcvn5.vcvn13             0                       (Unspecified)
system.ruby.network.sankey.vcvn5.vcvn14             0                       (Unspecified)
system.ruby.network.sankey.vcvn5.vcvn15             0                       (Unspecified)
system.ruby.network.sankey.vcvn5.vcvn16             0                       (Unspecified)
system.ruby.network.sankey.vcvn5.vcvn17             0                       (Unspecified)
system.ruby.network.sankey.vcvn5.vcvn2              0                       (Unspecified)
system.ruby.network.sankey.vcvn5.vcvn3              0                       (Unspecified)
system.ruby.network.sankey.vcvn5.vcvn4              0                       (Unspecified)
system.ruby.network.sankey.vcvn5.vcvn5        1993947                       (Unspecified)
system.ruby.network.sankey.vcvn5.vcvn6              0                       (Unspecified)
system.ruby.network.sankey.vcvn5.vcvn7              0                       (Unspecified)
system.ruby.network.sankey.vcvn5.vcvn8              0                       (Unspecified)
system.ruby.network.sankey.vcvn5.vcvn9              0                       (Unspecified)
system.ruby.network.sankey.vcvn6.vcvn0              0                       (Unspecified)
system.ruby.network.sankey.vcvn6.vcvn1              0                       (Unspecified)
system.ruby.network.sankey.vcvn6.vcvn10             0                       (Unspecified)
system.ruby.network.sankey.vcvn6.vcvn11             0                       (Unspecified)
system.ruby.network.sankey.vcvn6.vcvn12             0                       (Unspecified)
system.ruby.network.sankey.vcvn6.vcvn13             0                       (Unspecified)
system.ruby.network.sankey.vcvn6.vcvn14             0                       (Unspecified)
system.ruby.network.sankey.vcvn6.vcvn15             0                       (Unspecified)
system.ruby.network.sankey.vcvn6.vcvn16             0                       (Unspecified)
system.ruby.network.sankey.vcvn6.vcvn17             0                       (Unspecified)
system.ruby.network.sankey.vcvn6.vcvn2              0                       (Unspecified)
system.ruby.network.sankey.vcvn6.vcvn3              0                       (Unspecified)
system.ruby.network.sankey.vcvn6.vcvn4              0                       (Unspecified)
system.ruby.network.sankey.vcvn6.vcvn5              0                       (Unspecified)
system.ruby.network.sankey.vcvn6.vcvn6              0                       (Unspecified)
system.ruby.network.sankey.vcvn6.vcvn7              0                       (Unspecified)
system.ruby.network.sankey.vcvn6.vcvn8              0                       (Unspecified)
system.ruby.network.sankey.vcvn6.vcvn9              0                       (Unspecified)
system.ruby.network.sankey.vcvn7.vcvn0              0                       (Unspecified)
system.ruby.network.sankey.vcvn7.vcvn1              0                       (Unspecified)
system.ruby.network.sankey.vcvn7.vcvn10             0                       (Unspecified)
system.ruby.network.sankey.vcvn7.vcvn11             0                       (Unspecified)
system.ruby.network.sankey.vcvn7.vcvn12             0                       (Unspecified)
system.ruby.network.sankey.vcvn7.vcvn13             0                       (Unspecified)
system.ruby.network.sankey.vcvn7.vcvn14             0                       (Unspecified)
system.ruby.network.sankey.vcvn7.vcvn15             0                       (Unspecified)
system.ruby.network.sankey.vcvn7.vcvn16             0                       (Unspecified)
system.ruby.network.sankey.vcvn7.vcvn17             0                       (Unspecified)
system.ruby.network.sankey.vcvn7.vcvn2              0                       (Unspecified)
system.ruby.network.sankey.vcvn7.vcvn3              0                       (Unspecified)
system.ruby.network.sankey.vcvn7.vcvn4              0                       (Unspecified)
system.ruby.network.sankey.vcvn7.vcvn5              0                       (Unspecified)
system.ruby.network.sankey.vcvn7.vcvn6              0                       (Unspecified)
system.ruby.network.sankey.vcvn7.vcvn7              0                       (Unspecified)
system.ruby.network.sankey.vcvn7.vcvn8              0                       (Unspecified)
system.ruby.network.sankey.vcvn7.vcvn9              0                       (Unspecified)
system.ruby.network.sankey.vcvn8.vcvn0              0                       (Unspecified)
system.ruby.network.sankey.vcvn8.vcvn1              0                       (Unspecified)
system.ruby.network.sankey.vcvn8.vcvn10             0                       (Unspecified)
system.ruby.network.sankey.vcvn8.vcvn11             0                       (Unspecified)
system.ruby.network.sankey.vcvn8.vcvn12             0                       (Unspecified)
system.ruby.network.sankey.vcvn8.vcvn13             0                       (Unspecified)
system.ruby.network.sankey.vcvn8.vcvn14             0                       (Unspecified)
system.ruby.network.sankey.vcvn8.vcvn15             0                       (Unspecified)
system.ruby.network.sankey.vcvn8.vcvn16             0                       (Unspecified)
system.ruby.network.sankey.vcvn8.vcvn17             0                       (Unspecified)
system.ruby.network.sankey.vcvn8.vcvn2              0                       (Unspecified)
system.ruby.network.sankey.vcvn8.vcvn3              0                       (Unspecified)
system.ruby.network.sankey.vcvn8.vcvn4              0                       (Unspecified)
system.ruby.network.sankey.vcvn8.vcvn5              0                       (Unspecified)
system.ruby.network.sankey.vcvn8.vcvn6              0                       (Unspecified)
system.ruby.network.sankey.vcvn8.vcvn7              0                       (Unspecified)
system.ruby.network.sankey.vcvn8.vcvn8              0                       (Unspecified)
system.ruby.network.sankey.vcvn8.vcvn9              0                       (Unspecified)
system.ruby.network.sankey.vcvn9.vcvn0              0                       (Unspecified)
system.ruby.network.sankey.vcvn9.vcvn1              0                       (Unspecified)
system.ruby.network.sankey.vcvn9.vcvn10             0                       (Unspecified)
system.ruby.network.sankey.vcvn9.vcvn11             0                       (Unspecified)
system.ruby.network.sankey.vcvn9.vcvn12             0                       (Unspecified)
system.ruby.network.sankey.vcvn9.vcvn13             0                       (Unspecified)
system.ruby.network.sankey.vcvn9.vcvn14             0                       (Unspecified)
system.ruby.network.sankey.vcvn9.vcvn15             0                       (Unspecified)
system.ruby.network.sankey.vcvn9.vcvn16             0                       (Unspecified)
system.ruby.network.sankey.vcvn9.vcvn17             0                       (Unspecified)
system.ruby.network.sankey.vcvn9.vcvn2              0                       (Unspecified)
system.ruby.network.sankey.vcvn9.vcvn3              0                       (Unspecified)
system.ruby.network.sankey.vcvn9.vcvn4              0                       (Unspecified)
system.ruby.network.sankey.vcvn9.vcvn5              0                       (Unspecified)
system.ruby.network.sankey.vcvn9.vcvn6              0                       (Unspecified)
system.ruby.network.sankey.vcvn9.vcvn7              0                       (Unspecified)
system.ruby.network.sankey.vcvn9.vcvn8              0                       (Unspecified)
system.ruby.network.sankey.vcvn9.vcvn9              0                       (Unspecified)

---------- End Simulation Statistics   ----------
