gem5 Simulator System.  https://www.gem5.org
gem5 is copyrighted software; use the --copyright option for details.

gem5 version 22.0.0.2
gem5 compiled Jun 17 2023 14:31:12
gem5 started Nov 18 2023 15:49:57
gem5 executing on mnemosyne14.ecn.purdue.edu, pid 23693
command line: ./build/Garnet_standalone/gem5.fast -d ./synth_outputs/simple/2b/mixed/mclb_hops_4_6_40cpus_4xdirs_4.0GHz/coh/kite_small/0_175/ configs/auto_top/auto_top_synth.py --topology EscapeVirtualNetworks --noi_routers 20 --sim-cycles 2147483647 --injectionrate 0.175 --noc_clk 4.0GHz --sys-clock 4.0GHz --ruby-clock 4.0GHz --noi_clk 3.6GHz --router_map_file configs/topologies/paper_solutions/kite_small.map --flat_vn_map_file configs/topologies/vn_maps_mclb/kite_small_mclb_hops_4vns.vn --flat_nr_map_file configs/topologies/nr_list_mclb/kite_small_mclb.nrl --ruby --mem_or_coh coh --mem-size 320000000 --num-dirs 160 --num-cpus 40 --network garnet --mem-type SimpleMemory --routing-algorithm 2 --use_escape_vns --synth_traffic --vcs-per-vnet 6 --evn_deadlock_partition 2 --evn_n_deadlock_free 1 --evn_min_n_deadlock_free 4

info: Standard input is not a terminal, disabling listeners.
ingesting configs/topologies/vn_maps_mclb/kite_small_mclb_hops_4vns.vn
cpus(40)=[<m5.objects.GarnetSyntheticTraffic.GarnetSyntheticTraffic object at 0x7fe0f185c7b8>, <m5.objects.GarnetSyntheticTraffic.GarnetSyntheticTraffic object at 0x7fe0f1880da0>, <m5.objects.GarnetSyntheticTraffic.GarnetSyntheticTraffic object at 0x7fe0f13fd0b8>, <m5.objects.GarnetSyntheticTraffic.GarnetSyntheticTraffic object at 0x7fe0f13fd390>, <m5.objects.GarnetSyntheticTraffic.GarnetSyntheticTraffic object at 0x7fe0f13fd668>, <m5.objects.GarnetSyntheticTraffic.GarnetSyntheticTraffic object at 0x7fe0f13fd940>, <m5.objects.GarnetSyntheticTraffic.GarnetSyntheticTraffic object at 0x7fe0f13fdc18>, <m5.objects.GarnetSyntheticTraffic.GarnetSyntheticTraffic object at 0x7fe0f13fdef0>, <m5.objects.GarnetSyntheticTraffic.GarnetSyntheticTraffic object at 0x7fe0f1406208>, <m5.objects.GarnetSyntheticTraffic.GarnetSyntheticTraffic object at 0x7fe0f14064e0>, <m5.objects.GarnetSyntheticTraffic.GarnetSyntheticTraffic object at 0x7fe0f14067b8>, <m5.objects.GarnetSyntheticTraffic.GarnetSyntheticTraffic object at 0x7fe0f1406a90>, <m5.objects.GarnetSyntheticTraffic.GarnetSyntheticTraffic object at 0x7fe0f18807f0>, <m5.objects.GarnetSyntheticTraffic.GarnetSyntheticTraffic object at 0x7fe0f1870eb8>, <m5.objects.GarnetSyntheticTraffic.GarnetSyntheticTraffic object at 0x7fe0f187a6d8>, <m5.objects.GarnetSyntheticTraffic.GarnetSyntheticTraffic object at 0x7fe0f187ad30>, <m5.objects.GarnetSyntheticTraffic.GarnetSyntheticTraffic object at 0x7fe0f1406cf8>, <m5.objects.GarnetSyntheticTraffic.GarnetSyntheticTraffic object at 0x7fe0f1406fd0>, <m5.objects.GarnetSyntheticTraffic.GarnetSyntheticTraffic object at 0x7fe0f14122e8>, <m5.objects.GarnetSyntheticTraffic.GarnetSyntheticTraffic object at 0x7fe0f14125c0>, <m5.objects.GarnetSyntheticTraffic.GarnetSyntheticTraffic object at 0x7fe0f1412898>, <m5.objects.GarnetSyntheticTraffic.GarnetSyntheticTraffic object at 0x7fe0f1412b70>, <m5.objects.GarnetSyntheticTraffic.GarnetSyntheticTraffic object at 0x7fe0f1412e48>, <m5.objects.GarnetSyntheticTraffic.GarnetSyntheticTraffic object at 0x7fe0f141a160>, <m5.objects.GarnetSyntheticTraffic.GarnetSyntheticTraffic object at 0x7fe0f141a438>, <m5.objects.GarnetSyntheticTraffic.GarnetSyntheticTraffic object at 0x7fe0f141a710>, <m5.objects.GarnetSyntheticTraffic.GarnetSyntheticTraffic object at 0x7fe0f141a9e8>, <m5.objects.GarnetSyntheticTraffic.GarnetSyntheticTraffic object at 0x7fe0f141acc0>, <m5.objects.GarnetSyntheticTraffic.GarnetSyntheticTraffic object at 0x7fe0f141af98>, <m5.objects.GarnetSyntheticTraffic.GarnetSyntheticTraffic object at 0x7fe0f14212b0>, <m5.objects.GarnetSyntheticTraffic.GarnetSyntheticTraffic object at 0x7fe0f1421588>, <m5.objects.GarnetSyntheticTraffic.GarnetSyntheticTraffic object at 0x7fe0f1421860>, <m5.objects.GarnetSyntheticTraffic.GarnetSyntheticTraffic object at 0x7fe0f1421b38>, <m5.objects.GarnetSyntheticTraffic.GarnetSyntheticTraffic object at 0x7fe0f1421e10>, <m5.objects.GarnetSyntheticTraffic.GarnetSyntheticTraffic object at 0x7fe0f142a128>, <m5.objects.GarnetSyntheticTraffic.GarnetSyntheticTraffic object at 0x7fe0f142a400>, <m5.objects.GarnetSyntheticTraffic.GarnetSyntheticTraffic object at 0x7fe0f142a6d8>, <m5.objects.GarnetSyntheticTraffic.GarnetSyntheticTraffic object at 0x7fe0f142a9b0>, <m5.objects.GarnetSyntheticTraffic.GarnetSyntheticTraffic object at 0x7fe0f142ac88>, <m5.objects.GarnetSyntheticTraffic.GarnetSyntheticTraffic object at 0x7fe0f142af60>])
ingesting configs/topologies/nr_list_mclb/kite_small_mclb.nrl
ingesting configs/topologies/vn_maps_mclb/kite_small_mclb_hops_4vns.vn
ext_cdc_required = True
