gem5 Simulator System.  https://www.gem5.org
gem5 is copyrighted software; use the --copyright option for details.

gem5 version 22.0.0.2
gem5 compiled Jun 17 2023 14:31:12
gem5 started Nov 18 2023 15:48:57
gem5 executing on mnemosyne14.ecn.purdue.edu, pid 23352
command line: ./build/Garnet_standalone/gem5.fast -d ./synth_outputs/simple/2b/mixed/mclb_hops_4_6_40cpus_4xdirs_4.0GHz/coh/ft_x/0_155/ configs/auto_top/auto_top_synth.py --topology EscapeVirtualNetworks --noi_routers 20 --sim-cycles 2147483647 --injectionrate 0.155 --noc_clk 4.0GHz --sys-clock 4.0GHz --ruby-clock 4.0GHz --noi_clk 3.0GHz --router_map_file configs/topologies/paper_solutions/ft_x.map --flat_vn_map_file configs/topologies/vn_maps_mclb/ft_x_mclb_hops_4vns.vn --flat_nr_map_file configs/topologies/nr_list_mclb/ft_x_mclb.nrl --ruby --mem_or_coh coh --mem-size 320000000 --num-dirs 160 --num-cpus 40 --network garnet --mem-type SimpleMemory --routing-algorithm 2 --use_escape_vns --synth_traffic --vcs-per-vnet 6 --evn_deadlock_partition 2 --evn_n_deadlock_free 1 --evn_min_n_deadlock_free 4

info: Standard input is not a terminal, disabling listeners.
ingesting configs/topologies/vn_maps_mclb/ft_x_mclb_hops_4vns.vn
cpus(40)=[<m5.objects.GarnetSyntheticTraffic.GarnetSyntheticTraffic object at 0x7f44b1611048>, <m5.objects.GarnetSyntheticTraffic.GarnetSyntheticTraffic object at 0x7f44b1611e10>, <m5.objects.GarnetSyntheticTraffic.GarnetSyntheticTraffic object at 0x7f44b118d128>, <m5.objects.GarnetSyntheticTraffic.GarnetSyntheticTraffic object at 0x7f44b118d400>, <m5.objects.GarnetSyntheticTraffic.GarnetSyntheticTraffic object at 0x7f44b118d6d8>, <m5.objects.GarnetSyntheticTraffic.GarnetSyntheticTraffic object at 0x7f44b118d9b0>, <m5.objects.GarnetSyntheticTraffic.GarnetSyntheticTraffic object at 0x7f44b118dc88>, <m5.objects.GarnetSyntheticTraffic.GarnetSyntheticTraffic object at 0x7f44b118df60>, <m5.objects.GarnetSyntheticTraffic.GarnetSyntheticTraffic object at 0x7f44b1196278>, <m5.objects.GarnetSyntheticTraffic.GarnetSyntheticTraffic object at 0x7f44b1196550>, <m5.objects.GarnetSyntheticTraffic.GarnetSyntheticTraffic object at 0x7f44b1196828>, <m5.objects.GarnetSyntheticTraffic.GarnetSyntheticTraffic object at 0x7f44b1196b00>, <m5.objects.GarnetSyntheticTraffic.GarnetSyntheticTraffic object at 0x7f44b1611860>, <m5.objects.GarnetSyntheticTraffic.GarnetSyntheticTraffic object at 0x7f44b15ffeb8>, <m5.objects.GarnetSyntheticTraffic.GarnetSyntheticTraffic object at 0x7f44b160b6d8>, <m5.objects.GarnetSyntheticTraffic.GarnetSyntheticTraffic object at 0x7f44b160bd30>, <m5.objects.GarnetSyntheticTraffic.GarnetSyntheticTraffic object at 0x7f44b1196d68>, <m5.objects.GarnetSyntheticTraffic.GarnetSyntheticTraffic object at 0x7f44b11a2080>, <m5.objects.GarnetSyntheticTraffic.GarnetSyntheticTraffic object at 0x7f44b11a2358>, <m5.objects.GarnetSyntheticTraffic.GarnetSyntheticTraffic object at 0x7f44b11a2630>, <m5.objects.GarnetSyntheticTraffic.GarnetSyntheticTraffic object at 0x7f44b11a2908>, <m5.objects.GarnetSyntheticTraffic.GarnetSyntheticTraffic object at 0x7f44b11a2be0>, <m5.objects.GarnetSyntheticTraffic.GarnetSyntheticTraffic object at 0x7f44b11a2eb8>, <m5.objects.GarnetSyntheticTraffic.GarnetSyntheticTraffic object at 0x7f44b11a91d0>, <m5.objects.GarnetSyntheticTraffic.GarnetSyntheticTraffic object at 0x7f44b11a94a8>, <m5.objects.GarnetSyntheticTraffic.GarnetSyntheticTraffic object at 0x7f44b11a9780>, <m5.objects.GarnetSyntheticTraffic.GarnetSyntheticTraffic object at 0x7f44b11a9a58>, <m5.objects.GarnetSyntheticTraffic.GarnetSyntheticTraffic object at 0x7f44b11a9d30>, <m5.objects.GarnetSyntheticTraffic.GarnetSyntheticTraffic object at 0x7f44b11b1048>, <m5.objects.GarnetSyntheticTraffic.GarnetSyntheticTraffic object at 0x7f44b11b1320>, <m5.objects.GarnetSyntheticTraffic.GarnetSyntheticTraffic object at 0x7f44b11b15f8>, <m5.objects.GarnetSyntheticTraffic.GarnetSyntheticTraffic object at 0x7f44b11b18d0>, <m5.objects.GarnetSyntheticTraffic.GarnetSyntheticTraffic object at 0x7f44b11b1ba8>, <m5.objects.GarnetSyntheticTraffic.GarnetSyntheticTraffic object at 0x7f44b11b1e80>, <m5.objects.GarnetSyntheticTraffic.GarnetSyntheticTraffic object at 0x7f44b11ba198>, <m5.objects.GarnetSyntheticTraffic.GarnetSyntheticTraffic object at 0x7f44b11ba470>, <m5.objects.GarnetSyntheticTraffic.GarnetSyntheticTraffic object at 0x7f44b11ba748>, <m5.objects.GarnetSyntheticTraffic.GarnetSyntheticTraffic object at 0x7f44b11baa20>, <m5.objects.GarnetSyntheticTraffic.GarnetSyntheticTraffic object at 0x7f44b11bacf8>, <m5.objects.GarnetSyntheticTraffic.GarnetSyntheticTraffic object at 0x7f44b11bafd0>])
ingesting configs/topologies/nr_list_mclb/ft_x_mclb.nrl
ingesting configs/topologies/vn_maps_mclb/ft_x_mclb_hops_4vns.vn
ext_cdc_required = True
