
---------- Begin Simulation Statistics ----------
simSeconds                                   0.002147                       # Number of seconds simulated (Second)
simTicks                                   2147483750                       # Number of ticks simulated (Tick)
finalTick                                  2147483750                       # Number of ticks from beginning of simulation (restored from checkpoints and never reset) (Tick)
simFreq                                  1000000000000                       # The number of ticks per simulated second ((Tick/Second))
hostSeconds                                   5105.11                       # Real time elapsed on the host (Second)
hostTickRate                                   420654                       # The number of ticks simulated per host second (ticks/s) ((Tick/Second))
hostMemory                                    6530848                       # Number of bytes of host memory used (Byte)
system.clk_domain.clock                           250                       # Clock period in ticks (Tick)
system.cpu0.power_state.pwrStateResidencyTicks::UNDEFINED   2147483750                       # Cumulative time (in ticks) in various power states (Tick)
system.cpu1.power_state.pwrStateResidencyTicks::UNDEFINED   2147483750                       # Cumulative time (in ticks) in various power states (Tick)
system.cpu10.power_state.pwrStateResidencyTicks::UNDEFINED   2147483750                       # Cumulative time (in ticks) in various power states (Tick)
system.cpu11.power_state.pwrStateResidencyTicks::UNDEFINED   2147483750                       # Cumulative time (in ticks) in various power states (Tick)
system.cpu12.power_state.pwrStateResidencyTicks::UNDEFINED   2147483750                       # Cumulative time (in ticks) in various power states (Tick)
system.cpu13.power_state.pwrStateResidencyTicks::UNDEFINED   2147483750                       # Cumulative time (in ticks) in various power states (Tick)
system.cpu14.power_state.pwrStateResidencyTicks::UNDEFINED   2147483750                       # Cumulative time (in ticks) in various power states (Tick)
system.cpu15.power_state.pwrStateResidencyTicks::UNDEFINED   2147483750                       # Cumulative time (in ticks) in various power states (Tick)
system.cpu16.power_state.pwrStateResidencyTicks::UNDEFINED   2147483750                       # Cumulative time (in ticks) in various power states (Tick)
system.cpu17.power_state.pwrStateResidencyTicks::UNDEFINED   2147483750                       # Cumulative time (in ticks) in various power states (Tick)
system.cpu18.power_state.pwrStateResidencyTicks::UNDEFINED   2147483750                       # Cumulative time (in ticks) in various power states (Tick)
system.cpu19.power_state.pwrStateResidencyTicks::UNDEFINED   2147483750                       # Cumulative time (in ticks) in various power states (Tick)
system.cpu2.power_state.pwrStateResidencyTicks::UNDEFINED   2147483750                       # Cumulative time (in ticks) in various power states (Tick)
system.cpu20.power_state.pwrStateResidencyTicks::UNDEFINED   2147483750                       # Cumulative time (in ticks) in various power states (Tick)
system.cpu21.power_state.pwrStateResidencyTicks::UNDEFINED   2147483750                       # Cumulative time (in ticks) in various power states (Tick)
system.cpu22.power_state.pwrStateResidencyTicks::UNDEFINED   2147483750                       # Cumulative time (in ticks) in various power states (Tick)
system.cpu23.power_state.pwrStateResidencyTicks::UNDEFINED   2147483750                       # Cumulative time (in ticks) in various power states (Tick)
system.cpu24.power_state.pwrStateResidencyTicks::UNDEFINED   2147483750                       # Cumulative time (in ticks) in various power states (Tick)
system.cpu25.power_state.pwrStateResidencyTicks::UNDEFINED   2147483750                       # Cumulative time (in ticks) in various power states (Tick)
system.cpu26.power_state.pwrStateResidencyTicks::UNDEFINED   2147483750                       # Cumulative time (in ticks) in various power states (Tick)
system.cpu27.power_state.pwrStateResidencyTicks::UNDEFINED   2147483750                       # Cumulative time (in ticks) in various power states (Tick)
system.cpu28.power_state.pwrStateResidencyTicks::UNDEFINED   2147483750                       # Cumulative time (in ticks) in various power states (Tick)
system.cpu29.power_state.pwrStateResidencyTicks::UNDEFINED   2147483750                       # Cumulative time (in ticks) in various power states (Tick)
system.cpu3.power_state.pwrStateResidencyTicks::UNDEFINED   2147483750                       # Cumulative time (in ticks) in various power states (Tick)
system.cpu30.power_state.pwrStateResidencyTicks::UNDEFINED   2147483750                       # Cumulative time (in ticks) in various power states (Tick)
system.cpu31.power_state.pwrStateResidencyTicks::UNDEFINED   2147483750                       # Cumulative time (in ticks) in various power states (Tick)
system.cpu32.power_state.pwrStateResidencyTicks::UNDEFINED   2147483750                       # Cumulative time (in ticks) in various power states (Tick)
system.cpu33.power_state.pwrStateResidencyTicks::UNDEFINED   2147483750                       # Cumulative time (in ticks) in various power states (Tick)
system.cpu34.power_state.pwrStateResidencyTicks::UNDEFINED   2147483750                       # Cumulative time (in ticks) in various power states (Tick)
system.cpu35.power_state.pwrStateResidencyTicks::UNDEFINED   2147483750                       # Cumulative time (in ticks) in various power states (Tick)
system.cpu36.power_state.pwrStateResidencyTicks::UNDEFINED   2147483750                       # Cumulative time (in ticks) in various power states (Tick)
system.cpu37.power_state.pwrStateResidencyTicks::UNDEFINED   2147483750                       # Cumulative time (in ticks) in various power states (Tick)
system.cpu38.power_state.pwrStateResidencyTicks::UNDEFINED   2147483750                       # Cumulative time (in ticks) in various power states (Tick)
system.cpu39.power_state.pwrStateResidencyTicks::UNDEFINED   2147483750                       # Cumulative time (in ticks) in various power states (Tick)
system.cpu4.power_state.pwrStateResidencyTicks::UNDEFINED   2147483750                       # Cumulative time (in ticks) in various power states (Tick)
system.cpu5.power_state.pwrStateResidencyTicks::UNDEFINED   2147483750                       # Cumulative time (in ticks) in various power states (Tick)
system.cpu6.power_state.pwrStateResidencyTicks::UNDEFINED   2147483750                       # Cumulative time (in ticks) in various power states (Tick)
system.cpu7.power_state.pwrStateResidencyTicks::UNDEFINED   2147483750                       # Cumulative time (in ticks) in various power states (Tick)
system.cpu8.power_state.pwrStateResidencyTicks::UNDEFINED   2147483750                       # Cumulative time (in ticks) in various power states (Tick)
system.cpu9.power_state.pwrStateResidencyTicks::UNDEFINED   2147483750                       # Cumulative time (in ticks) in various power states (Tick)
system.mem_ctrls0.power_state.pwrStateResidencyTicks::UNDEFINED   2147483750                       # Cumulative time (in ticks) in various power states (Tick)
system.mem_ctrls1.power_state.pwrStateResidencyTicks::UNDEFINED   2147483750                       # Cumulative time (in ticks) in various power states (Tick)
system.mem_ctrls10.power_state.pwrStateResidencyTicks::UNDEFINED   2147483750                       # Cumulative time (in ticks) in various power states (Tick)
system.mem_ctrls100.power_state.pwrStateResidencyTicks::UNDEFINED   2147483750                       # Cumulative time (in ticks) in various power states (Tick)
system.mem_ctrls101.power_state.pwrStateResidencyTicks::UNDEFINED   2147483750                       # Cumulative time (in ticks) in various power states (Tick)
system.mem_ctrls102.power_state.pwrStateResidencyTicks::UNDEFINED   2147483750                       # Cumulative time (in ticks) in various power states (Tick)
system.mem_ctrls103.power_state.pwrStateResidencyTicks::UNDEFINED   2147483750                       # Cumulative time (in ticks) in various power states (Tick)
system.mem_ctrls104.power_state.pwrStateResidencyTicks::UNDEFINED   2147483750                       # Cumulative time (in ticks) in various power states (Tick)
system.mem_ctrls105.power_state.pwrStateResidencyTicks::UNDEFINED   2147483750                       # Cumulative time (in ticks) in various power states (Tick)
system.mem_ctrls106.power_state.pwrStateResidencyTicks::UNDEFINED   2147483750                       # Cumulative time (in ticks) in various power states (Tick)
system.mem_ctrls107.power_state.pwrStateResidencyTicks::UNDEFINED   2147483750                       # Cumulative time (in ticks) in various power states (Tick)
system.mem_ctrls108.power_state.pwrStateResidencyTicks::UNDEFINED   2147483750                       # Cumulative time (in ticks) in various power states (Tick)
system.mem_ctrls109.power_state.pwrStateResidencyTicks::UNDEFINED   2147483750                       # Cumulative time (in ticks) in various power states (Tick)
system.mem_ctrls11.power_state.pwrStateResidencyTicks::UNDEFINED   2147483750                       # Cumulative time (in ticks) in various power states (Tick)
system.mem_ctrls110.power_state.pwrStateResidencyTicks::UNDEFINED   2147483750                       # Cumulative time (in ticks) in various power states (Tick)
system.mem_ctrls111.power_state.pwrStateResidencyTicks::UNDEFINED   2147483750                       # Cumulative time (in ticks) in various power states (Tick)
system.mem_ctrls112.power_state.pwrStateResidencyTicks::UNDEFINED   2147483750                       # Cumulative time (in ticks) in various power states (Tick)
system.mem_ctrls113.power_state.pwrStateResidencyTicks::UNDEFINED   2147483750                       # Cumulative time (in ticks) in various power states (Tick)
system.mem_ctrls114.power_state.pwrStateResidencyTicks::UNDEFINED   2147483750                       # Cumulative time (in ticks) in various power states (Tick)
system.mem_ctrls115.power_state.pwrStateResidencyTicks::UNDEFINED   2147483750                       # Cumulative time (in ticks) in various power states (Tick)
system.mem_ctrls116.power_state.pwrStateResidencyTicks::UNDEFINED   2147483750                       # Cumulative time (in ticks) in various power states (Tick)
system.mem_ctrls117.power_state.pwrStateResidencyTicks::UNDEFINED   2147483750                       # Cumulative time (in ticks) in various power states (Tick)
system.mem_ctrls118.power_state.pwrStateResidencyTicks::UNDEFINED   2147483750                       # Cumulative time (in ticks) in various power states (Tick)
system.mem_ctrls119.power_state.pwrStateResidencyTicks::UNDEFINED   2147483750                       # Cumulative time (in ticks) in various power states (Tick)
system.mem_ctrls12.power_state.pwrStateResidencyTicks::UNDEFINED   2147483750                       # Cumulative time (in ticks) in various power states (Tick)
system.mem_ctrls120.power_state.pwrStateResidencyTicks::UNDEFINED   2147483750                       # Cumulative time (in ticks) in various power states (Tick)
system.mem_ctrls121.power_state.pwrStateResidencyTicks::UNDEFINED   2147483750                       # Cumulative time (in ticks) in various power states (Tick)
system.mem_ctrls122.power_state.pwrStateResidencyTicks::UNDEFINED   2147483750                       # Cumulative time (in ticks) in various power states (Tick)
system.mem_ctrls123.power_state.pwrStateResidencyTicks::UNDEFINED   2147483750                       # Cumulative time (in ticks) in various power states (Tick)
system.mem_ctrls124.power_state.pwrStateResidencyTicks::UNDEFINED   2147483750                       # Cumulative time (in ticks) in various power states (Tick)
system.mem_ctrls125.power_state.pwrStateResidencyTicks::UNDEFINED   2147483750                       # Cumulative time (in ticks) in various power states (Tick)
system.mem_ctrls126.power_state.pwrStateResidencyTicks::UNDEFINED   2147483750                       # Cumulative time (in ticks) in various power states (Tick)
system.mem_ctrls127.power_state.pwrStateResidencyTicks::UNDEFINED   2147483750                       # Cumulative time (in ticks) in various power states (Tick)
system.mem_ctrls128.power_state.pwrStateResidencyTicks::UNDEFINED   2147483750                       # Cumulative time (in ticks) in various power states (Tick)
system.mem_ctrls129.power_state.pwrStateResidencyTicks::UNDEFINED   2147483750                       # Cumulative time (in ticks) in various power states (Tick)
system.mem_ctrls13.power_state.pwrStateResidencyTicks::UNDEFINED   2147483750                       # Cumulative time (in ticks) in various power states (Tick)
system.mem_ctrls130.power_state.pwrStateResidencyTicks::UNDEFINED   2147483750                       # Cumulative time (in ticks) in various power states (Tick)
system.mem_ctrls131.power_state.pwrStateResidencyTicks::UNDEFINED   2147483750                       # Cumulative time (in ticks) in various power states (Tick)
system.mem_ctrls132.power_state.pwrStateResidencyTicks::UNDEFINED   2147483750                       # Cumulative time (in ticks) in various power states (Tick)
system.mem_ctrls133.power_state.pwrStateResidencyTicks::UNDEFINED   2147483750                       # Cumulative time (in ticks) in various power states (Tick)
system.mem_ctrls134.power_state.pwrStateResidencyTicks::UNDEFINED   2147483750                       # Cumulative time (in ticks) in various power states (Tick)
system.mem_ctrls135.power_state.pwrStateResidencyTicks::UNDEFINED   2147483750                       # Cumulative time (in ticks) in various power states (Tick)
system.mem_ctrls136.power_state.pwrStateResidencyTicks::UNDEFINED   2147483750                       # Cumulative time (in ticks) in various power states (Tick)
system.mem_ctrls137.power_state.pwrStateResidencyTicks::UNDEFINED   2147483750                       # Cumulative time (in ticks) in various power states (Tick)
system.mem_ctrls138.power_state.pwrStateResidencyTicks::UNDEFINED   2147483750                       # Cumulative time (in ticks) in various power states (Tick)
system.mem_ctrls139.power_state.pwrStateResidencyTicks::UNDEFINED   2147483750                       # Cumulative time (in ticks) in various power states (Tick)
system.mem_ctrls14.power_state.pwrStateResidencyTicks::UNDEFINED   2147483750                       # Cumulative time (in ticks) in various power states (Tick)
system.mem_ctrls140.power_state.pwrStateResidencyTicks::UNDEFINED   2147483750                       # Cumulative time (in ticks) in various power states (Tick)
system.mem_ctrls141.power_state.pwrStateResidencyTicks::UNDEFINED   2147483750                       # Cumulative time (in ticks) in various power states (Tick)
system.mem_ctrls142.power_state.pwrStateResidencyTicks::UNDEFINED   2147483750                       # Cumulative time (in ticks) in various power states (Tick)
system.mem_ctrls143.power_state.pwrStateResidencyTicks::UNDEFINED   2147483750                       # Cumulative time (in ticks) in various power states (Tick)
system.mem_ctrls144.power_state.pwrStateResidencyTicks::UNDEFINED   2147483750                       # Cumulative time (in ticks) in various power states (Tick)
system.mem_ctrls145.power_state.pwrStateResidencyTicks::UNDEFINED   2147483750                       # Cumulative time (in ticks) in various power states (Tick)
system.mem_ctrls146.power_state.pwrStateResidencyTicks::UNDEFINED   2147483750                       # Cumulative time (in ticks) in various power states (Tick)
system.mem_ctrls147.power_state.pwrStateResidencyTicks::UNDEFINED   2147483750                       # Cumulative time (in ticks) in various power states (Tick)
system.mem_ctrls148.power_state.pwrStateResidencyTicks::UNDEFINED   2147483750                       # Cumulative time (in ticks) in various power states (Tick)
system.mem_ctrls149.power_state.pwrStateResidencyTicks::UNDEFINED   2147483750                       # Cumulative time (in ticks) in various power states (Tick)
system.mem_ctrls15.power_state.pwrStateResidencyTicks::UNDEFINED   2147483750                       # Cumulative time (in ticks) in various power states (Tick)
system.mem_ctrls150.power_state.pwrStateResidencyTicks::UNDEFINED   2147483750                       # Cumulative time (in ticks) in various power states (Tick)
system.mem_ctrls151.power_state.pwrStateResidencyTicks::UNDEFINED   2147483750                       # Cumulative time (in ticks) in various power states (Tick)
system.mem_ctrls152.power_state.pwrStateResidencyTicks::UNDEFINED   2147483750                       # Cumulative time (in ticks) in various power states (Tick)
system.mem_ctrls153.power_state.pwrStateResidencyTicks::UNDEFINED   2147483750                       # Cumulative time (in ticks) in various power states (Tick)
system.mem_ctrls154.power_state.pwrStateResidencyTicks::UNDEFINED   2147483750                       # Cumulative time (in ticks) in various power states (Tick)
system.mem_ctrls155.power_state.pwrStateResidencyTicks::UNDEFINED   2147483750                       # Cumulative time (in ticks) in various power states (Tick)
system.mem_ctrls156.power_state.pwrStateResidencyTicks::UNDEFINED   2147483750                       # Cumulative time (in ticks) in various power states (Tick)
system.mem_ctrls157.power_state.pwrStateResidencyTicks::UNDEFINED   2147483750                       # Cumulative time (in ticks) in various power states (Tick)
system.mem_ctrls158.power_state.pwrStateResidencyTicks::UNDEFINED   2147483750                       # Cumulative time (in ticks) in various power states (Tick)
system.mem_ctrls159.power_state.pwrStateResidencyTicks::UNDEFINED   2147483750                       # Cumulative time (in ticks) in various power states (Tick)
system.mem_ctrls16.power_state.pwrStateResidencyTicks::UNDEFINED   2147483750                       # Cumulative time (in ticks) in various power states (Tick)
system.mem_ctrls17.power_state.pwrStateResidencyTicks::UNDEFINED   2147483750                       # Cumulative time (in ticks) in various power states (Tick)
system.mem_ctrls18.power_state.pwrStateResidencyTicks::UNDEFINED   2147483750                       # Cumulative time (in ticks) in various power states (Tick)
system.mem_ctrls19.power_state.pwrStateResidencyTicks::UNDEFINED   2147483750                       # Cumulative time (in ticks) in various power states (Tick)
system.mem_ctrls2.power_state.pwrStateResidencyTicks::UNDEFINED   2147483750                       # Cumulative time (in ticks) in various power states (Tick)
system.mem_ctrls20.power_state.pwrStateResidencyTicks::UNDEFINED   2147483750                       # Cumulative time (in ticks) in various power states (Tick)
system.mem_ctrls21.power_state.pwrStateResidencyTicks::UNDEFINED   2147483750                       # Cumulative time (in ticks) in various power states (Tick)
system.mem_ctrls22.power_state.pwrStateResidencyTicks::UNDEFINED   2147483750                       # Cumulative time (in ticks) in various power states (Tick)
system.mem_ctrls23.power_state.pwrStateResidencyTicks::UNDEFINED   2147483750                       # Cumulative time (in ticks) in various power states (Tick)
system.mem_ctrls24.power_state.pwrStateResidencyTicks::UNDEFINED   2147483750                       # Cumulative time (in ticks) in various power states (Tick)
system.mem_ctrls25.power_state.pwrStateResidencyTicks::UNDEFINED   2147483750                       # Cumulative time (in ticks) in various power states (Tick)
system.mem_ctrls26.power_state.pwrStateResidencyTicks::UNDEFINED   2147483750                       # Cumulative time (in ticks) in various power states (Tick)
system.mem_ctrls27.power_state.pwrStateResidencyTicks::UNDEFINED   2147483750                       # Cumulative time (in ticks) in various power states (Tick)
system.mem_ctrls28.power_state.pwrStateResidencyTicks::UNDEFINED   2147483750                       # Cumulative time (in ticks) in various power states (Tick)
system.mem_ctrls29.power_state.pwrStateResidencyTicks::UNDEFINED   2147483750                       # Cumulative time (in ticks) in various power states (Tick)
system.mem_ctrls3.power_state.pwrStateResidencyTicks::UNDEFINED   2147483750                       # Cumulative time (in ticks) in various power states (Tick)
system.mem_ctrls30.power_state.pwrStateResidencyTicks::UNDEFINED   2147483750                       # Cumulative time (in ticks) in various power states (Tick)
system.mem_ctrls31.power_state.pwrStateResidencyTicks::UNDEFINED   2147483750                       # Cumulative time (in ticks) in various power states (Tick)
system.mem_ctrls32.power_state.pwrStateResidencyTicks::UNDEFINED   2147483750                       # Cumulative time (in ticks) in various power states (Tick)
system.mem_ctrls33.power_state.pwrStateResidencyTicks::UNDEFINED   2147483750                       # Cumulative time (in ticks) in various power states (Tick)
system.mem_ctrls34.power_state.pwrStateResidencyTicks::UNDEFINED   2147483750                       # Cumulative time (in ticks) in various power states (Tick)
system.mem_ctrls35.power_state.pwrStateResidencyTicks::UNDEFINED   2147483750                       # Cumulative time (in ticks) in various power states (Tick)
system.mem_ctrls36.power_state.pwrStateResidencyTicks::UNDEFINED   2147483750                       # Cumulative time (in ticks) in various power states (Tick)
system.mem_ctrls37.power_state.pwrStateResidencyTicks::UNDEFINED   2147483750                       # Cumulative time (in ticks) in various power states (Tick)
system.mem_ctrls38.power_state.pwrStateResidencyTicks::UNDEFINED   2147483750                       # Cumulative time (in ticks) in various power states (Tick)
system.mem_ctrls39.power_state.pwrStateResidencyTicks::UNDEFINED   2147483750                       # Cumulative time (in ticks) in various power states (Tick)
system.mem_ctrls4.power_state.pwrStateResidencyTicks::UNDEFINED   2147483750                       # Cumulative time (in ticks) in various power states (Tick)
system.mem_ctrls40.power_state.pwrStateResidencyTicks::UNDEFINED   2147483750                       # Cumulative time (in ticks) in various power states (Tick)
system.mem_ctrls41.power_state.pwrStateResidencyTicks::UNDEFINED   2147483750                       # Cumulative time (in ticks) in various power states (Tick)
system.mem_ctrls42.power_state.pwrStateResidencyTicks::UNDEFINED   2147483750                       # Cumulative time (in ticks) in various power states (Tick)
system.mem_ctrls43.power_state.pwrStateResidencyTicks::UNDEFINED   2147483750                       # Cumulative time (in ticks) in various power states (Tick)
system.mem_ctrls44.power_state.pwrStateResidencyTicks::UNDEFINED   2147483750                       # Cumulative time (in ticks) in various power states (Tick)
system.mem_ctrls45.power_state.pwrStateResidencyTicks::UNDEFINED   2147483750                       # Cumulative time (in ticks) in various power states (Tick)
system.mem_ctrls46.power_state.pwrStateResidencyTicks::UNDEFINED   2147483750                       # Cumulative time (in ticks) in various power states (Tick)
system.mem_ctrls47.power_state.pwrStateResidencyTicks::UNDEFINED   2147483750                       # Cumulative time (in ticks) in various power states (Tick)
system.mem_ctrls48.power_state.pwrStateResidencyTicks::UNDEFINED   2147483750                       # Cumulative time (in ticks) in various power states (Tick)
system.mem_ctrls49.power_state.pwrStateResidencyTicks::UNDEFINED   2147483750                       # Cumulative time (in ticks) in various power states (Tick)
system.mem_ctrls5.power_state.pwrStateResidencyTicks::UNDEFINED   2147483750                       # Cumulative time (in ticks) in various power states (Tick)
system.mem_ctrls50.power_state.pwrStateResidencyTicks::UNDEFINED   2147483750                       # Cumulative time (in ticks) in various power states (Tick)
system.mem_ctrls51.power_state.pwrStateResidencyTicks::UNDEFINED   2147483750                       # Cumulative time (in ticks) in various power states (Tick)
system.mem_ctrls52.power_state.pwrStateResidencyTicks::UNDEFINED   2147483750                       # Cumulative time (in ticks) in various power states (Tick)
system.mem_ctrls53.power_state.pwrStateResidencyTicks::UNDEFINED   2147483750                       # Cumulative time (in ticks) in various power states (Tick)
system.mem_ctrls54.power_state.pwrStateResidencyTicks::UNDEFINED   2147483750                       # Cumulative time (in ticks) in various power states (Tick)
system.mem_ctrls55.power_state.pwrStateResidencyTicks::UNDEFINED   2147483750                       # Cumulative time (in ticks) in various power states (Tick)
system.mem_ctrls56.power_state.pwrStateResidencyTicks::UNDEFINED   2147483750                       # Cumulative time (in ticks) in various power states (Tick)
system.mem_ctrls57.power_state.pwrStateResidencyTicks::UNDEFINED   2147483750                       # Cumulative time (in ticks) in various power states (Tick)
system.mem_ctrls58.power_state.pwrStateResidencyTicks::UNDEFINED   2147483750                       # Cumulative time (in ticks) in various power states (Tick)
system.mem_ctrls59.power_state.pwrStateResidencyTicks::UNDEFINED   2147483750                       # Cumulative time (in ticks) in various power states (Tick)
system.mem_ctrls6.power_state.pwrStateResidencyTicks::UNDEFINED   2147483750                       # Cumulative time (in ticks) in various power states (Tick)
system.mem_ctrls60.power_state.pwrStateResidencyTicks::UNDEFINED   2147483750                       # Cumulative time (in ticks) in various power states (Tick)
system.mem_ctrls61.power_state.pwrStateResidencyTicks::UNDEFINED   2147483750                       # Cumulative time (in ticks) in various power states (Tick)
system.mem_ctrls62.power_state.pwrStateResidencyTicks::UNDEFINED   2147483750                       # Cumulative time (in ticks) in various power states (Tick)
system.mem_ctrls63.power_state.pwrStateResidencyTicks::UNDEFINED   2147483750                       # Cumulative time (in ticks) in various power states (Tick)
system.mem_ctrls64.power_state.pwrStateResidencyTicks::UNDEFINED   2147483750                       # Cumulative time (in ticks) in various power states (Tick)
system.mem_ctrls65.power_state.pwrStateResidencyTicks::UNDEFINED   2147483750                       # Cumulative time (in ticks) in various power states (Tick)
system.mem_ctrls66.power_state.pwrStateResidencyTicks::UNDEFINED   2147483750                       # Cumulative time (in ticks) in various power states (Tick)
system.mem_ctrls67.power_state.pwrStateResidencyTicks::UNDEFINED   2147483750                       # Cumulative time (in ticks) in various power states (Tick)
system.mem_ctrls68.power_state.pwrStateResidencyTicks::UNDEFINED   2147483750                       # Cumulative time (in ticks) in various power states (Tick)
system.mem_ctrls69.power_state.pwrStateResidencyTicks::UNDEFINED   2147483750                       # Cumulative time (in ticks) in various power states (Tick)
system.mem_ctrls7.power_state.pwrStateResidencyTicks::UNDEFINED   2147483750                       # Cumulative time (in ticks) in various power states (Tick)
system.mem_ctrls70.power_state.pwrStateResidencyTicks::UNDEFINED   2147483750                       # Cumulative time (in ticks) in various power states (Tick)
system.mem_ctrls71.power_state.pwrStateResidencyTicks::UNDEFINED   2147483750                       # Cumulative time (in ticks) in various power states (Tick)
system.mem_ctrls72.power_state.pwrStateResidencyTicks::UNDEFINED   2147483750                       # Cumulative time (in ticks) in various power states (Tick)
system.mem_ctrls73.power_state.pwrStateResidencyTicks::UNDEFINED   2147483750                       # Cumulative time (in ticks) in various power states (Tick)
system.mem_ctrls74.power_state.pwrStateResidencyTicks::UNDEFINED   2147483750                       # Cumulative time (in ticks) in various power states (Tick)
system.mem_ctrls75.power_state.pwrStateResidencyTicks::UNDEFINED   2147483750                       # Cumulative time (in ticks) in various power states (Tick)
system.mem_ctrls76.power_state.pwrStateResidencyTicks::UNDEFINED   2147483750                       # Cumulative time (in ticks) in various power states (Tick)
system.mem_ctrls77.power_state.pwrStateResidencyTicks::UNDEFINED   2147483750                       # Cumulative time (in ticks) in various power states (Tick)
system.mem_ctrls78.power_state.pwrStateResidencyTicks::UNDEFINED   2147483750                       # Cumulative time (in ticks) in various power states (Tick)
system.mem_ctrls79.power_state.pwrStateResidencyTicks::UNDEFINED   2147483750                       # Cumulative time (in ticks) in various power states (Tick)
system.mem_ctrls8.power_state.pwrStateResidencyTicks::UNDEFINED   2147483750                       # Cumulative time (in ticks) in various power states (Tick)
system.mem_ctrls80.power_state.pwrStateResidencyTicks::UNDEFINED   2147483750                       # Cumulative time (in ticks) in various power states (Tick)
system.mem_ctrls81.power_state.pwrStateResidencyTicks::UNDEFINED   2147483750                       # Cumulative time (in ticks) in various power states (Tick)
system.mem_ctrls82.power_state.pwrStateResidencyTicks::UNDEFINED   2147483750                       # Cumulative time (in ticks) in various power states (Tick)
system.mem_ctrls83.power_state.pwrStateResidencyTicks::UNDEFINED   2147483750                       # Cumulative time (in ticks) in various power states (Tick)
system.mem_ctrls84.power_state.pwrStateResidencyTicks::UNDEFINED   2147483750                       # Cumulative time (in ticks) in various power states (Tick)
system.mem_ctrls85.power_state.pwrStateResidencyTicks::UNDEFINED   2147483750                       # Cumulative time (in ticks) in various power states (Tick)
system.mem_ctrls86.power_state.pwrStateResidencyTicks::UNDEFINED   2147483750                       # Cumulative time (in ticks) in various power states (Tick)
system.mem_ctrls87.power_state.pwrStateResidencyTicks::UNDEFINED   2147483750                       # Cumulative time (in ticks) in various power states (Tick)
system.mem_ctrls88.power_state.pwrStateResidencyTicks::UNDEFINED   2147483750                       # Cumulative time (in ticks) in various power states (Tick)
system.mem_ctrls89.power_state.pwrStateResidencyTicks::UNDEFINED   2147483750                       # Cumulative time (in ticks) in various power states (Tick)
system.mem_ctrls9.power_state.pwrStateResidencyTicks::UNDEFINED   2147483750                       # Cumulative time (in ticks) in various power states (Tick)
system.mem_ctrls90.power_state.pwrStateResidencyTicks::UNDEFINED   2147483750                       # Cumulative time (in ticks) in various power states (Tick)
system.mem_ctrls91.power_state.pwrStateResidencyTicks::UNDEFINED   2147483750                       # Cumulative time (in ticks) in various power states (Tick)
system.mem_ctrls92.power_state.pwrStateResidencyTicks::UNDEFINED   2147483750                       # Cumulative time (in ticks) in various power states (Tick)
system.mem_ctrls93.power_state.pwrStateResidencyTicks::UNDEFINED   2147483750                       # Cumulative time (in ticks) in various power states (Tick)
system.mem_ctrls94.power_state.pwrStateResidencyTicks::UNDEFINED   2147483750                       # Cumulative time (in ticks) in various power states (Tick)
system.mem_ctrls95.power_state.pwrStateResidencyTicks::UNDEFINED   2147483750                       # Cumulative time (in ticks) in various power states (Tick)
system.mem_ctrls96.power_state.pwrStateResidencyTicks::UNDEFINED   2147483750                       # Cumulative time (in ticks) in various power states (Tick)
system.mem_ctrls97.power_state.pwrStateResidencyTicks::UNDEFINED   2147483750                       # Cumulative time (in ticks) in various power states (Tick)
system.mem_ctrls98.power_state.pwrStateResidencyTicks::UNDEFINED   2147483750                       # Cumulative time (in ticks) in various power states (Tick)
system.mem_ctrls99.power_state.pwrStateResidencyTicks::UNDEFINED   2147483750                       # Cumulative time (in ticks) in various power states (Tick)
system.ruby.m_outstandReqHistSeqr::bucket_size            1                       (Unspecified)
system.ruby.m_outstandReqHistSeqr::max_bucket            9                       (Unspecified)
system.ruby.m_outstandReqHistSeqr::samples     29174821                       (Unspecified)
system.ruby.m_outstandReqHistSeqr::mean             1                       (Unspecified)
system.ruby.m_outstandReqHistSeqr::gmean            1                       (Unspecified)
system.ruby.m_outstandReqHistSeqr        |           0      0.00%      0.00% |    29174821    100.00%    100.00% |           0      0.00%    100.00% |           0      0.00%    100.00% |           0      0.00%    100.00% |           0      0.00%    100.00% |           0      0.00%    100.00% |           0      0.00%    100.00% |           0      0.00%    100.00% |           0      0.00%    100.00% (Unspecified)
system.ruby.m_outstandReqHistSeqr::total     29174821                       (Unspecified)
system.ruby.m_latencyHistSeqr::bucket_size            1                       (Unspecified)
system.ruby.m_latencyHistSeqr::max_bucket            9                       (Unspecified)
system.ruby.m_latencyHistSeqr::samples       29174821                       (Unspecified)
system.ruby.m_latencyHistSeqr::mean                 1                       (Unspecified)
system.ruby.m_latencyHistSeqr::gmean                1                       (Unspecified)
system.ruby.m_latencyHistSeqr            |           0      0.00%      0.00% |    29174821    100.00%    100.00% |           0      0.00%    100.00% |           0      0.00%    100.00% |           0      0.00%    100.00% |           0      0.00%    100.00% |           0      0.00%    100.00% |           0      0.00%    100.00% |           0      0.00%    100.00% |           0      0.00%    100.00% (Unspecified)
system.ruby.m_latencyHistSeqr::total         29174821                       (Unspecified)
system.ruby.m_hitLatencyHistSeqr::bucket_size            1                       (Unspecified)
system.ruby.m_hitLatencyHistSeqr::max_bucket            9                       (Unspecified)
system.ruby.m_hitLatencyHistSeqr::samples     29174821                       (Unspecified)
system.ruby.m_hitLatencyHistSeqr::mean              1                       (Unspecified)
system.ruby.m_hitLatencyHistSeqr::gmean             1                       (Unspecified)
system.ruby.m_hitLatencyHistSeqr         |           0      0.00%      0.00% |    29174821    100.00%    100.00% |           0      0.00%    100.00% |           0      0.00%    100.00% |           0      0.00%    100.00% |           0      0.00%    100.00% |           0      0.00%    100.00% |           0      0.00%    100.00% |           0      0.00%    100.00% |           0      0.00%    100.00% (Unspecified)
system.ruby.m_hitLatencyHistSeqr::total      29174821                       (Unspecified)
system.ruby.Directory_Controller.Receive_Request |       90666      0.62%      0.62% |       91212      0.63%      1.25% |       90992      0.62%      1.87% |       90993      0.62%      2.49% |       91470      0.63%      3.12% |       91216      0.63%      3.75% |       91427      0.63%      4.37% |       91530      0.63%      5.00% |       91856      0.63%      5.63% |       91056      0.62%      6.25% |       90890      0.62%      6.88% |       91155      0.62%      7.50% |       90848      0.62%      8.13% |       90804      0.62%      8.75% |       90988      0.62%      9.37% |       90886      0.62%      9.99% |       91224      0.63%     10.62% |       91600      0.63%     11.25% |       91307      0.63%     11.87% |       91241      0.63%     12.50% |       91575      0.63%     13.13% |       91304      0.63%     13.75% |       91361      0.63%     14.38% |       90781      0.62%     15.00% |       90934      0.62%     15.63% |       91155      0.62%     16.25% |       91118      0.62%     16.87% |       91558      0.63%     17.50% |       91226      0.63%     18.13% |       91656      0.63%     18.76% |       91271      0.63%     19.38% |       91357      0.63%     20.01% |       91411      0.63%     20.63% |       90988      0.62%     21.26% |       90990      0.62%     21.88% |       90955      0.62%     22.51% |       90955      0.62%     23.13% |       90898      0.62%     23.75% |       91333      0.63%     24.38% |       90746      0.62%     25.00% |       91231      0.63%     25.63% |       91134      0.62%     26.25% |       91346      0.63%     26.88% |       91485      0.63%     27.50% |       90929      0.62%     28.13% |       91485      0.63%     28.75% |       91223      0.63%     29.38% |       90752      0.62%     30.00% |       90974      0.62%     30.63% |       91421      0.63%     31.25% |       91094      0.62%     31.88% |       91019      0.62%     32.50% |       91079      0.62%     33.13% |       91112      0.62%     33.75% |       90982      0.62%     34.37% |       90982      0.62%     35.00% |       90909      0.62%     35.62% |       91250      0.63%     36.25% |       91233      0.63%     36.87% |       91380      0.63%     37.50% |       91236      0.63%     38.12% |       90646      0.62%     38.74% |       91231      0.63%     39.37% |       91409      0.63%     40.00% |       91267      0.63%     40.62% |       91203      0.63%     41.25% |       91413      0.63%     41.87% |       90964      0.62%     42.50% |       90741      0.62%     43.12% |       91261      0.63%     43.75% |       91085      0.62%     44.37% |       91784      0.63%     45.00% |       91231      0.63%     45.62% |       90841      0.62%     46.25% |       91028      0.62%     46.87% |       91600      0.63%     47.50% |       91882      0.63%     48.13% |       90736      0.62%     48.75% |       91038      0.62%     49.37% |       91330      0.63%     50.00% |       91027      0.62%     50.63% |       90816      0.62%     51.25% |       90617      0.62%     51.87% |       91380      0.63%     52.50% |       90784      0.62%     53.12% |       91135      0.62%     53.74% |       91058      0.62%     54.37% |       91510      0.63%     54.99% |       91803      0.63%     55.62% |       91032      0.62%     56.25% |       91167      0.62%     56.87% |       91604      0.63%     57.50% |       91509      0.63%     58.13% |       91321      0.63%     58.75% |       91684      0.63%     59.38% |       91052      0.62%     60.01% |       91280      0.63%     60.63% |       91192      0.63%     61.26% |       91014      0.62%     61.88% |       91226      0.63%     62.51% |       91364      0.63%     63.13% |       90803      0.62%     63.76% |       91072      0.62%     64.38% |       90999      0.62%     65.00% |       91136      0.62%     65.63% |       90917      0.62%     66.25% |       91434      0.63%     66.88% |       91366      0.63%     67.50% |       90841      0.62%     68.13% |       91024      0.62%     68.75% |       91089      0.62%     69.38% |       91351      0.63%     70.00% |       91504      0.63%     70.63% |       91048      0.62%     71.25% |       91582      0.63%     71.88% |       90958      0.62%     72.50% |       91313      0.63%     73.13% |       90860      0.62%     73.75% |       91234      0.63%     74.38% |       90884      0.62%     75.00% |       90310      0.62%     75.62% |       91261      0.63%     76.25% |       91208      0.63%     76.87% |       91400      0.63%     77.50% |       90919      0.62%     78.12% |       91188      0.63%     78.75% |       90801      0.62%     79.37% |       91138      0.62%     79.99% |       91175      0.63%     80.62% |       91383      0.63%     81.25% |       91011      0.62%     81.87% |       91458      0.63%     82.50% |       90924      0.62%     83.12% |       91370      0.63%     83.75% |       91031      0.62%     84.37% |       90933      0.62%     84.99% |       90789      0.62%     85.62% |       90745      0.62%     86.24% |       91169      0.62%     86.86% |       91474      0.63%     87.49% |       91316      0.63%     88.12% |       91030      0.62%     88.74% |       90868      0.62%     89.36% |       91233      0.63%     89.99% |       90466      0.62%     90.61% |       91152      0.62%     91.23% |       91254      0.63%     91.86% |       91189      0.63%     92.48% |       90947      0.62%     93.11% |       91544      0.63%     93.73% |       91359      0.63%     94.36% |       91081      0.62%     94.99% |       91612      0.63%     95.61% |       91527      0.63%     96.24% |       91266      0.63%     96.87% |       91599      0.63%     97.49% |       91298      0.63%     98.12% |       91131      0.62%     98.75% |       91778      0.63%     99.37% |       91262      0.63%    100.00% (Unspecified)
system.ruby.Directory_Controller.Receive_Request::total     14587468                       (Unspecified)
system.ruby.Directory_Controller.Receive_Response |       59543      0.63%      0.63% |       59222      0.62%      1.25% |       59652      0.63%      1.88% |       59235      0.62%      2.50% |       59244      0.62%      3.13% |       59368      0.63%      3.75% |       58955      0.62%      4.37% |       59669      0.63%      5.00% |       59636      0.63%      5.63% |       59262      0.62%      6.25% |       59571      0.63%      6.88% |       59594      0.63%      7.51% |       59215      0.62%      8.13% |       59323      0.62%      8.76% |       59293      0.62%      9.38% |       58802      0.62%     10.00% |       59063      0.62%     10.62% |       59409      0.63%     11.25% |       59009      0.62%     11.87% |       59151      0.62%     12.49% |       58912      0.62%     13.11% |       59663      0.63%     13.74% |       59346      0.62%     14.36% |       59491      0.63%     14.99% |       59312      0.62%     15.62% |       59068      0.62%     16.24% |       59461      0.63%     16.86% |       59127      0.62%     17.49% |       59111      0.62%     18.11% |       59280      0.62%     18.73% |       59435      0.63%     19.36% |       59227      0.62%     19.98% |       58915      0.62%     20.60% |       59444      0.63%     21.23% |       59618      0.63%     21.86% |       59112      0.62%     22.48% |       59576      0.63%     23.11% |       59104      0.62%     23.73% |       59656      0.63%     24.36% |       59275      0.62%     24.98% |       59458      0.63%     25.61% |       59133      0.62%     26.23% |       59640      0.63%     26.86% |       59396      0.63%     27.48% |       59777      0.63%     28.11% |       59607      0.63%     28.74% |       59552      0.63%     29.37% |       59810      0.63%     30.00% |       59205      0.62%     30.62% |       58853      0.62%     31.24% |       59249      0.62%     31.86% |       58917      0.62%     32.48% |       59251      0.62%     33.11% |       59493      0.63%     33.73% |       59412      0.63%     34.36% |       59357      0.63%     34.99% |       58744      0.62%     35.60% |       59106      0.62%     36.23% |       59776      0.63%     36.86% |       59330      0.62%     37.48% |       59469      0.63%     38.11% |       59258      0.62%     38.73% |       59553      0.63%     39.36% |       59625      0.63%     39.99% |       59098      0.62%     40.61% |       59378      0.63%     41.23% |       59611      0.63%     41.86% |       59283      0.62%     42.48% |       59325      0.62%     43.11% |       59352      0.62%     43.73% |       59197      0.62%     44.36% |       59358      0.63%     44.98% |       59166      0.62%     45.61% |       58897      0.62%     46.23% |       59454      0.63%     46.85% |       59097      0.62%     47.47% |       59332      0.62%     48.10% |       59260      0.62%     48.72% |       59237      0.62%     49.35% |       59109      0.62%     49.97% |       59557      0.63%     50.60% |       59629      0.63%     51.22% |       58921      0.62%     51.84% |       59530      0.63%     52.47% |       59205      0.62%     53.09% |       59637      0.63%     53.72% |       59579      0.63%     54.35% |       59277      0.62%     54.97% |       59475      0.63%     55.60% |       59250      0.62%     56.22% |       58741      0.62%     56.84% |       58966      0.62%     57.46% |       59363      0.63%     58.09% |       59747      0.63%     58.72% |       59270      0.62%     59.34% |       59166      0.62%     59.97% |       59597      0.63%     60.59% |       59550      0.63%     61.22% |       59656      0.63%     61.85% |       59715      0.63%     62.48% |       59493      0.63%     63.10% |       59772      0.63%     63.73% |       59417      0.63%     64.36% |       59294      0.62%     64.98% |       59285      0.62%     65.61% |       59744      0.63%     66.24% |       59344      0.62%     66.86% |       59276      0.62%     67.49% |       59238      0.62%     68.11% |       59535      0.63%     68.74% |       59214      0.62%     69.36% |       59441      0.63%     69.99% |       60068      0.63%     70.62% |       59464      0.63%     71.24% |       59054      0.62%     71.87% |       59703      0.63%     72.49% |       59702      0.63%     73.12% |       59329      0.62%     73.75% |       59522      0.63%     74.37% |       59225      0.62%     75.00% |       59520      0.63%     75.62% |       59277      0.62%     76.25% |       59209      0.62%     76.87% |       59931      0.63%     77.50% |       59263      0.62%     78.13% |       59439      0.63%     78.75% |       59123      0.62%     79.38% |       59415      0.63%     80.00% |       59293      0.62%     80.63% |       59396      0.63%     81.25% |       59779      0.63%     81.88% |       59216      0.62%     82.50% |       59651      0.63%     83.13% |       59599      0.63%     83.76% |       59105      0.62%     84.38% |       59438      0.63%     85.01% |       59521      0.63%     85.64% |       59241      0.62%     86.26% |       59303      0.62%     86.88% |       59516      0.63%     87.51% |       59345      0.62%     88.13% |       59074      0.62%     88.76% |       59264      0.62%     89.38% |       59593      0.63%     90.01% |       58897      0.62%     90.63% |       59393      0.63%     91.25% |       59336      0.62%     91.88% |       59355      0.62%     92.50% |       59210      0.62%     93.13% |       59212      0.62%     93.75% |       59348      0.62%     94.38% |       59397      0.63%     95.00% |       58921      0.62%     95.62% |       59156      0.62%     96.24% |       59267      0.62%     96.87% |       59579      0.63%     97.50% |       59413      0.63%     98.12% |       59218      0.62%     98.75% |       59955      0.63%     99.38% |       59214      0.62%    100.00% (Unspecified)
system.ruby.Directory_Controller.Receive_Response::total      9496807                       (Unspecified)
system.ruby.Directory_Controller.I.Receive_Request |       90666      0.62%      0.62% |       91212      0.63%      1.25% |       90992      0.62%      1.87% |       90993      0.62%      2.49% |       91470      0.63%      3.12% |       91216      0.63%      3.75% |       91427      0.63%      4.37% |       91530      0.63%      5.00% |       91856      0.63%      5.63% |       91056      0.62%      6.25% |       90890      0.62%      6.88% |       91155      0.62%      7.50% |       90848      0.62%      8.13% |       90804      0.62%      8.75% |       90988      0.62%      9.37% |       90886      0.62%      9.99% |       91224      0.63%     10.62% |       91600      0.63%     11.25% |       91307      0.63%     11.87% |       91241      0.63%     12.50% |       91575      0.63%     13.13% |       91304      0.63%     13.75% |       91361      0.63%     14.38% |       90781      0.62%     15.00% |       90934      0.62%     15.63% |       91155      0.62%     16.25% |       91118      0.62%     16.87% |       91558      0.63%     17.50% |       91226      0.63%     18.13% |       91656      0.63%     18.76% |       91271      0.63%     19.38% |       91357      0.63%     20.01% |       91411      0.63%     20.63% |       90988      0.62%     21.26% |       90990      0.62%     21.88% |       90955      0.62%     22.51% |       90955      0.62%     23.13% |       90898      0.62%     23.75% |       91333      0.63%     24.38% |       90746      0.62%     25.00% |       91231      0.63%     25.63% |       91134      0.62%     26.25% |       91346      0.63%     26.88% |       91485      0.63%     27.50% |       90929      0.62%     28.13% |       91485      0.63%     28.75% |       91223      0.63%     29.38% |       90752      0.62%     30.00% |       90974      0.62%     30.63% |       91421      0.63%     31.25% |       91094      0.62%     31.88% |       91019      0.62%     32.50% |       91079      0.62%     33.13% |       91112      0.62%     33.75% |       90982      0.62%     34.37% |       90982      0.62%     35.00% |       90909      0.62%     35.62% |       91250      0.63%     36.25% |       91233      0.63%     36.87% |       91380      0.63%     37.50% |       91236      0.63%     38.12% |       90646      0.62%     38.74% |       91231      0.63%     39.37% |       91409      0.63%     40.00% |       91267      0.63%     40.62% |       91203      0.63%     41.25% |       91413      0.63%     41.87% |       90964      0.62%     42.50% |       90741      0.62%     43.12% |       91261      0.63%     43.75% |       91085      0.62%     44.37% |       91784      0.63%     45.00% |       91231      0.63%     45.62% |       90841      0.62%     46.25% |       91028      0.62%     46.87% |       91600      0.63%     47.50% |       91882      0.63%     48.13% |       90736      0.62%     48.75% |       91038      0.62%     49.37% |       91330      0.63%     50.00% |       91027      0.62%     50.63% |       90816      0.62%     51.25% |       90617      0.62%     51.87% |       91380      0.63%     52.50% |       90784      0.62%     53.12% |       91135      0.62%     53.74% |       91058      0.62%     54.37% |       91510      0.63%     54.99% |       91803      0.63%     55.62% |       91032      0.62%     56.25% |       91167      0.62%     56.87% |       91604      0.63%     57.50% |       91509      0.63%     58.13% |       91321      0.63%     58.75% |       91684      0.63%     59.38% |       91052      0.62%     60.01% |       91280      0.63%     60.63% |       91192      0.63%     61.26% |       91014      0.62%     61.88% |       91226      0.63%     62.51% |       91364      0.63%     63.13% |       90803      0.62%     63.76% |       91072      0.62%     64.38% |       90999      0.62%     65.00% |       91136      0.62%     65.63% |       90917      0.62%     66.25% |       91434      0.63%     66.88% |       91366      0.63%     67.50% |       90841      0.62%     68.13% |       91024      0.62%     68.75% |       91089      0.62%     69.38% |       91351      0.63%     70.00% |       91504      0.63%     70.63% |       91048      0.62%     71.25% |       91582      0.63%     71.88% |       90958      0.62%     72.50% |       91313      0.63%     73.13% |       90860      0.62%     73.75% |       91234      0.63%     74.38% |       90884      0.62%     75.00% |       90310      0.62%     75.62% |       91261      0.63%     76.25% |       91208      0.63%     76.87% |       91400      0.63%     77.50% |       90919      0.62%     78.12% |       91188      0.63%     78.75% |       90801      0.62%     79.37% |       91138      0.62%     79.99% |       91175      0.63%     80.62% |       91383      0.63%     81.25% |       91011      0.62%     81.87% |       91458      0.63%     82.50% |       90924      0.62%     83.12% |       91370      0.63%     83.75% |       91031      0.62%     84.37% |       90933      0.62%     84.99% |       90789      0.62%     85.62% |       90745      0.62%     86.24% |       91169      0.62%     86.86% |       91474      0.63%     87.49% |       91316      0.63%     88.12% |       91030      0.62%     88.74% |       90868      0.62%     89.36% |       91233      0.63%     89.99% |       90466      0.62%     90.61% |       91152      0.62%     91.23% |       91254      0.63%     91.86% |       91189      0.63%     92.48% |       90947      0.62%     93.11% |       91544      0.63%     93.73% |       91359      0.63%     94.36% |       91081      0.62%     94.99% |       91612      0.63%     95.61% |       91527      0.63%     96.24% |       91266      0.63%     96.87% |       91599      0.63%     97.49% |       91298      0.63%     98.12% |       91131      0.62%     98.75% |       91778      0.63%     99.37% |       91262      0.63%    100.00% (Unspecified)
system.ruby.Directory_Controller.I.Receive_Request::total     14587468                       (Unspecified)
system.ruby.Directory_Controller.I.Receive_Response |       59543      0.63%      0.63% |       59222      0.62%      1.25% |       59652      0.63%      1.88% |       59235      0.62%      2.50% |       59244      0.62%      3.13% |       59368      0.63%      3.75% |       58955      0.62%      4.37% |       59669      0.63%      5.00% |       59636      0.63%      5.63% |       59262      0.62%      6.25% |       59571      0.63%      6.88% |       59594      0.63%      7.51% |       59215      0.62%      8.13% |       59323      0.62%      8.76% |       59293      0.62%      9.38% |       58802      0.62%     10.00% |       59063      0.62%     10.62% |       59409      0.63%     11.25% |       59009      0.62%     11.87% |       59151      0.62%     12.49% |       58912      0.62%     13.11% |       59663      0.63%     13.74% |       59346      0.62%     14.36% |       59491      0.63%     14.99% |       59312      0.62%     15.62% |       59068      0.62%     16.24% |       59461      0.63%     16.86% |       59127      0.62%     17.49% |       59111      0.62%     18.11% |       59280      0.62%     18.73% |       59435      0.63%     19.36% |       59227      0.62%     19.98% |       58915      0.62%     20.60% |       59444      0.63%     21.23% |       59618      0.63%     21.86% |       59112      0.62%     22.48% |       59576      0.63%     23.11% |       59104      0.62%     23.73% |       59656      0.63%     24.36% |       59275      0.62%     24.98% |       59458      0.63%     25.61% |       59133      0.62%     26.23% |       59640      0.63%     26.86% |       59396      0.63%     27.48% |       59777      0.63%     28.11% |       59607      0.63%     28.74% |       59552      0.63%     29.37% |       59810      0.63%     30.00% |       59205      0.62%     30.62% |       58853      0.62%     31.24% |       59249      0.62%     31.86% |       58917      0.62%     32.48% |       59251      0.62%     33.11% |       59493      0.63%     33.73% |       59412      0.63%     34.36% |       59357      0.63%     34.99% |       58744      0.62%     35.60% |       59106      0.62%     36.23% |       59776      0.63%     36.86% |       59330      0.62%     37.48% |       59469      0.63%     38.11% |       59258      0.62%     38.73% |       59553      0.63%     39.36% |       59625      0.63%     39.99% |       59098      0.62%     40.61% |       59378      0.63%     41.23% |       59611      0.63%     41.86% |       59283      0.62%     42.48% |       59325      0.62%     43.11% |       59352      0.62%     43.73% |       59197      0.62%     44.36% |       59358      0.63%     44.98% |       59166      0.62%     45.61% |       58897      0.62%     46.23% |       59454      0.63%     46.85% |       59097      0.62%     47.47% |       59332      0.62%     48.10% |       59260      0.62%     48.72% |       59237      0.62%     49.35% |       59109      0.62%     49.97% |       59557      0.63%     50.60% |       59629      0.63%     51.22% |       58921      0.62%     51.84% |       59530      0.63%     52.47% |       59205      0.62%     53.09% |       59637      0.63%     53.72% |       59579      0.63%     54.35% |       59277      0.62%     54.97% |       59475      0.63%     55.60% |       59250      0.62%     56.22% |       58741      0.62%     56.84% |       58966      0.62%     57.46% |       59363      0.63%     58.09% |       59747      0.63%     58.72% |       59270      0.62%     59.34% |       59166      0.62%     59.97% |       59597      0.63%     60.59% |       59550      0.63%     61.22% |       59656      0.63%     61.85% |       59715      0.63%     62.48% |       59493      0.63%     63.10% |       59772      0.63%     63.73% |       59417      0.63%     64.36% |       59294      0.62%     64.98% |       59285      0.62%     65.61% |       59744      0.63%     66.24% |       59344      0.62%     66.86% |       59276      0.62%     67.49% |       59238      0.62%     68.11% |       59535      0.63%     68.74% |       59214      0.62%     69.36% |       59441      0.63%     69.99% |       60068      0.63%     70.62% |       59464      0.63%     71.24% |       59054      0.62%     71.87% |       59703      0.63%     72.49% |       59702      0.63%     73.12% |       59329      0.62%     73.75% |       59522      0.63%     74.37% |       59225      0.62%     75.00% |       59520      0.63%     75.62% |       59277      0.62%     76.25% |       59209      0.62%     76.87% |       59931      0.63%     77.50% |       59263      0.62%     78.13% |       59439      0.63%     78.75% |       59123      0.62%     79.38% |       59415      0.63%     80.00% |       59293      0.62%     80.63% |       59396      0.63%     81.25% |       59779      0.63%     81.88% |       59216      0.62%     82.50% |       59651      0.63%     83.13% |       59599      0.63%     83.76% |       59105      0.62%     84.38% |       59438      0.63%     85.01% |       59521      0.63%     85.64% |       59241      0.62%     86.26% |       59303      0.62%     86.88% |       59516      0.63%     87.51% |       59345      0.62%     88.13% |       59074      0.62%     88.76% |       59264      0.62%     89.38% |       59593      0.63%     90.01% |       58897      0.62%     90.63% |       59393      0.63%     91.25% |       59336      0.62%     91.88% |       59355      0.62%     92.50% |       59210      0.62%     93.13% |       59212      0.62%     93.75% |       59348      0.62%     94.38% |       59397      0.63%     95.00% |       58921      0.62%     95.62% |       59156      0.62%     96.24% |       59267      0.62%     96.87% |       59579      0.63%     97.50% |       59413      0.63%     98.12% |       59218      0.62%     98.75% |       59955      0.63%     99.38% |       59214      0.62%    100.00% (Unspecified)
system.ruby.Directory_Controller.I.Receive_Response::total      9496807                       (Unspecified)
system.ruby.L1Cache_Controller.Request   |      364090      2.50%      2.50% |      364722      2.50%      5.00% |      366042      2.51%      7.51% |      364861      2.50%     10.01% |      364405      2.50%     12.50% |      363311      2.49%     15.00% |      364259      2.50%     17.49% |      364547      2.50%     19.99% |      364407      2.50%     22.49% |      363447      2.49%     24.98% |      365037      2.50%     27.48% |      365365      2.50%     29.99% |      364680      2.50%     32.49% |      364964      2.50%     34.99% |      364106      2.50%     37.49% |      366488      2.51%     40.00% |      364802      2.50%     42.50% |      364644      2.50%     45.00% |      364286      2.50%     47.50% |      364707      2.50%     50.00% |      364357      2.50%     52.49% |      364503      2.50%     54.99% |      365179      2.50%     57.50% |      364834      2.50%     60.00% |      364497      2.50%     62.50% |      364177      2.50%     64.99% |      364985      2.50%     67.49% |      364585      2.50%     69.99% |      365535      2.51%     72.50% |      364816      2.50%     75.00% |      364792      2.50%     77.50% |      364561      2.50%     80.00% |      365304      2.50%     82.50% |      364401      2.50%     85.00% |      365674      2.51%     87.51% |      364085      2.50%     90.00% |      365418      2.51%     92.51% |      363375      2.49%     95.00% |      364953      2.50%     97.50% |      364311      2.50%    100.00% (Unspecified)
system.ruby.L1Cache_Controller.Request::total     14587512                       (Unspecified)
system.ruby.L1Cache_Controller.Response  |      364774      2.50%      2.50% |      364212      2.50%      5.00% |      364337      2.50%      7.50% |      364475      2.50%      9.99% |      364847      2.50%     12.49% |      364861      2.50%     15.00% |      364772      2.50%     17.50% |      365601      2.51%     20.00% |      364973      2.50%     22.50% |      364019      2.50%     25.00% |      364492      2.50%     27.50% |      364417      2.50%     30.00% |      364288      2.50%     32.49% |      363586      2.49%     34.99% |      364054      2.50%     37.48% |      364127      2.50%     39.98% |      364814      2.50%     42.48% |      364731      2.50%     44.98% |      364512      2.50%     47.48% |      364897      2.50%     49.98% |      364886      2.50%     52.48% |      363508      2.49%     54.97% |      365401      2.50%     57.48% |      364526      2.50%     59.98% |      364236      2.50%     62.47% |      366150      2.51%     64.98% |      365314      2.50%     67.49% |      365550      2.51%     69.99% |      365051      2.50%     72.50% |      364051      2.50%     74.99% |      365381      2.50%     77.50% |      364736      2.50%     80.00% |      364601      2.50%     82.50% |      364266      2.50%     84.99% |      363823      2.49%     87.49% |      364969      2.50%     89.99% |      364959      2.50%     92.49% |      364633      2.50%     94.99% |      365182      2.50%     97.50% |      365297      2.50%    100.00% (Unspecified)
system.ruby.L1Cache_Controller.Response::total     14587309                       (Unspecified)
system.ruby.L1Cache_Controller.I.Request |      364090      2.50%      2.50% |      364722      2.50%      5.00% |      366042      2.51%      7.51% |      364861      2.50%     10.01% |      364405      2.50%     12.50% |      363311      2.49%     15.00% |      364259      2.50%     17.49% |      364547      2.50%     19.99% |      364407      2.50%     22.49% |      363447      2.49%     24.98% |      365037      2.50%     27.48% |      365365      2.50%     29.99% |      364680      2.50%     32.49% |      364964      2.50%     34.99% |      364106      2.50%     37.49% |      366488      2.51%     40.00% |      364802      2.50%     42.50% |      364644      2.50%     45.00% |      364286      2.50%     47.50% |      364707      2.50%     50.00% |      364357      2.50%     52.49% |      364503      2.50%     54.99% |      365179      2.50%     57.50% |      364834      2.50%     60.00% |      364497      2.50%     62.50% |      364177      2.50%     64.99% |      364985      2.50%     67.49% |      364585      2.50%     69.99% |      365535      2.51%     72.50% |      364816      2.50%     75.00% |      364792      2.50%     77.50% |      364561      2.50%     80.00% |      365304      2.50%     82.50% |      364401      2.50%     85.00% |      365674      2.51%     87.51% |      364085      2.50%     90.00% |      365418      2.51%     92.51% |      363375      2.49%     95.00% |      364953      2.50%     97.50% |      364311      2.50%    100.00% (Unspecified)
system.ruby.L1Cache_Controller.I.Request::total     14587512                       (Unspecified)
system.ruby.L1Cache_Controller.I.Response |      364774      2.50%      2.50% |      364212      2.50%      5.00% |      364337      2.50%      7.50% |      364475      2.50%      9.99% |      364847      2.50%     12.49% |      364861      2.50%     15.00% |      364772      2.50%     17.50% |      365601      2.51%     20.00% |      364973      2.50%     22.50% |      364019      2.50%     25.00% |      364492      2.50%     27.50% |      364417      2.50%     30.00% |      364288      2.50%     32.49% |      363586      2.49%     34.99% |      364054      2.50%     37.48% |      364127      2.50%     39.98% |      364814      2.50%     42.48% |      364731      2.50%     44.98% |      364512      2.50%     47.48% |      364897      2.50%     49.98% |      364886      2.50%     52.48% |      363508      2.49%     54.97% |      365401      2.50%     57.48% |      364526      2.50%     59.98% |      364236      2.50%     62.47% |      366150      2.51%     64.98% |      365314      2.50%     67.49% |      365550      2.51%     69.99% |      365051      2.50%     72.50% |      364051      2.50%     74.99% |      365381      2.50%     77.50% |      364736      2.50%     80.00% |      364601      2.50%     82.50% |      364266      2.50%     84.99% |      363823      2.49%     87.49% |      364969      2.50%     89.99% |      364959      2.50%     92.49% |      364633      2.50%     94.99% |      365182      2.50%     97.50% |      365297      2.50%    100.00% (Unspecified)
system.ruby.L1Cache_Controller.I.Response::total     14587309                       (Unspecified)
system.ruby.RequestType.LD.latency_hist_seqr::bucket_size            1                       (Unspecified)
system.ruby.RequestType.LD.latency_hist_seqr::max_bucket            9                       (Unspecified)
system.ruby.RequestType.LD.latency_hist_seqr::samples     14587512                       (Unspecified)
system.ruby.RequestType.LD.latency_hist_seqr::mean            1                       (Unspecified)
system.ruby.RequestType.LD.latency_hist_seqr::gmean            1                       (Unspecified)
system.ruby.RequestType.LD.latency_hist_seqr |           0      0.00%      0.00% |    14587512    100.00%    100.00% |           0      0.00%    100.00% |           0      0.00%    100.00% |           0      0.00%    100.00% |           0      0.00%    100.00% |           0      0.00%    100.00% |           0      0.00%    100.00% |           0      0.00%    100.00% |           0      0.00%    100.00% (Unspecified)
system.ruby.RequestType.LD.latency_hist_seqr::total     14587512                       (Unspecified)
system.ruby.RequestType.LD.hit_latency_hist_seqr::bucket_size            1                       (Unspecified)
system.ruby.RequestType.LD.hit_latency_hist_seqr::max_bucket            9                       (Unspecified)
system.ruby.RequestType.LD.hit_latency_hist_seqr::samples     14587512                       (Unspecified)
system.ruby.RequestType.LD.hit_latency_hist_seqr::mean            1                       (Unspecified)
system.ruby.RequestType.LD.hit_latency_hist_seqr::gmean            1                       (Unspecified)
system.ruby.RequestType.LD.hit_latency_hist_seqr |           0      0.00%      0.00% |    14587512    100.00%    100.00% |           0      0.00%    100.00% |           0      0.00%    100.00% |           0      0.00%    100.00% |           0      0.00%    100.00% |           0      0.00%    100.00% |           0      0.00%    100.00% |           0      0.00%    100.00% |           0      0.00%    100.00% (Unspecified)
system.ruby.RequestType.LD.hit_latency_hist_seqr::total     14587512                       (Unspecified)
system.ruby.RequestType.ST.latency_hist_seqr::bucket_size            1                       (Unspecified)
system.ruby.RequestType.ST.latency_hist_seqr::max_bucket            9                       (Unspecified)
system.ruby.RequestType.ST.latency_hist_seqr::samples     14587309                       (Unspecified)
system.ruby.RequestType.ST.latency_hist_seqr::mean            1                       (Unspecified)
system.ruby.RequestType.ST.latency_hist_seqr::gmean            1                       (Unspecified)
system.ruby.RequestType.ST.latency_hist_seqr |           0      0.00%      0.00% |    14587309    100.00%    100.00% |           0      0.00%    100.00% |           0      0.00%    100.00% |           0      0.00%    100.00% |           0      0.00%    100.00% |           0      0.00%    100.00% |           0      0.00%    100.00% |           0      0.00%    100.00% |           0      0.00%    100.00% (Unspecified)
system.ruby.RequestType.ST.latency_hist_seqr::total     14587309                       (Unspecified)
system.ruby.RequestType.ST.hit_latency_hist_seqr::bucket_size            1                       (Unspecified)
system.ruby.RequestType.ST.hit_latency_hist_seqr::max_bucket            9                       (Unspecified)
system.ruby.RequestType.ST.hit_latency_hist_seqr::samples     14587309                       (Unspecified)
system.ruby.RequestType.ST.hit_latency_hist_seqr::mean            1                       (Unspecified)
system.ruby.RequestType.ST.hit_latency_hist_seqr::gmean            1                       (Unspecified)
system.ruby.RequestType.ST.hit_latency_hist_seqr |           0      0.00%      0.00% |    14587309    100.00%    100.00% |           0      0.00%    100.00% |           0      0.00%    100.00% |           0      0.00%    100.00% |           0      0.00%    100.00% |           0      0.00%    100.00% |           0      0.00%    100.00% |           0      0.00%    100.00% |           0      0.00%    100.00% (Unspecified)
system.ruby.RequestType.ST.hit_latency_hist_seqr::total     14587309                       (Unspecified)
system.ruby.clk_domain.clock                      250                       # Clock period in ticks (Tick)
system.ruby.dir_cntrl0.power_state.pwrStateResidencyTicks::UNDEFINED   2147483750                       # Cumulative time (in ticks) in various power states (Tick)
system.ruby.dir_cntrl0.requestToDir.m_msg_count        90666                       # Number of messages passed the buffer (Count)
system.ruby.dir_cntrl0.requestToDir.m_buf_msgs     0.010555                       # Average number of messages in buffer ((Count/Tick))
system.ruby.dir_cntrl0.responseToDir.m_msg_count        59543                       # Number of messages passed the buffer (Count)
system.ruby.dir_cntrl0.responseToDir.m_buf_msgs     0.006932                       # Average number of messages in buffer ((Count/Tick))
system.ruby.dir_cntrl1.power_state.pwrStateResidencyTicks::UNDEFINED   2147483750                       # Cumulative time (in ticks) in various power states (Tick)
system.ruby.dir_cntrl1.requestToDir.m_msg_count        91212                       # Number of messages passed the buffer (Count)
system.ruby.dir_cntrl1.requestToDir.m_buf_msgs     0.010618                       # Average number of messages in buffer ((Count/Tick))
system.ruby.dir_cntrl1.responseToDir.m_msg_count        59222                       # Number of messages passed the buffer (Count)
system.ruby.dir_cntrl1.responseToDir.m_buf_msgs     0.006894                       # Average number of messages in buffer ((Count/Tick))
system.ruby.dir_cntrl10.power_state.pwrStateResidencyTicks::UNDEFINED   2147483750                       # Cumulative time (in ticks) in various power states (Tick)
system.ruby.dir_cntrl10.requestToDir.m_msg_count        90890                       # Number of messages passed the buffer (Count)
system.ruby.dir_cntrl10.requestToDir.m_buf_msgs     0.010581                       # Average number of messages in buffer ((Count/Tick))
system.ruby.dir_cntrl10.responseToDir.m_msg_count        59571                       # Number of messages passed the buffer (Count)
system.ruby.dir_cntrl10.responseToDir.m_buf_msgs     0.006935                       # Average number of messages in buffer ((Count/Tick))
system.ruby.dir_cntrl100.power_state.pwrStateResidencyTicks::UNDEFINED   2147483750                       # Cumulative time (in ticks) in various power states (Tick)
system.ruby.dir_cntrl100.requestToDir.m_msg_count        91364                       # Number of messages passed the buffer (Count)
system.ruby.dir_cntrl100.requestToDir.m_buf_msgs     0.010636                       # Average number of messages in buffer ((Count/Tick))
system.ruby.dir_cntrl100.responseToDir.m_msg_count        59493                       # Number of messages passed the buffer (Count)
system.ruby.dir_cntrl100.responseToDir.m_buf_msgs     0.006926                       # Average number of messages in buffer ((Count/Tick))
system.ruby.dir_cntrl101.power_state.pwrStateResidencyTicks::UNDEFINED   2147483750                       # Cumulative time (in ticks) in various power states (Tick)
system.ruby.dir_cntrl101.requestToDir.m_msg_count        90803                       # Number of messages passed the buffer (Count)
system.ruby.dir_cntrl101.requestToDir.m_buf_msgs     0.010571                       # Average number of messages in buffer ((Count/Tick))
system.ruby.dir_cntrl101.responseToDir.m_msg_count        59772                       # Number of messages passed the buffer (Count)
system.ruby.dir_cntrl101.responseToDir.m_buf_msgs     0.006958                       # Average number of messages in buffer ((Count/Tick))
system.ruby.dir_cntrl102.power_state.pwrStateResidencyTicks::UNDEFINED   2147483750                       # Cumulative time (in ticks) in various power states (Tick)
system.ruby.dir_cntrl102.requestToDir.m_msg_count        91072                       # Number of messages passed the buffer (Count)
system.ruby.dir_cntrl102.requestToDir.m_buf_msgs     0.010602                       # Average number of messages in buffer ((Count/Tick))
system.ruby.dir_cntrl102.responseToDir.m_msg_count        59417                       # Number of messages passed the buffer (Count)
system.ruby.dir_cntrl102.responseToDir.m_buf_msgs     0.006917                       # Average number of messages in buffer ((Count/Tick))
system.ruby.dir_cntrl103.power_state.pwrStateResidencyTicks::UNDEFINED   2147483750                       # Cumulative time (in ticks) in various power states (Tick)
system.ruby.dir_cntrl103.requestToDir.m_msg_count        90999                       # Number of messages passed the buffer (Count)
system.ruby.dir_cntrl103.requestToDir.m_buf_msgs     0.010594                       # Average number of messages in buffer ((Count/Tick))
system.ruby.dir_cntrl103.responseToDir.m_msg_count        59294                       # Number of messages passed the buffer (Count)
system.ruby.dir_cntrl103.responseToDir.m_buf_msgs     0.006903                       # Average number of messages in buffer ((Count/Tick))
system.ruby.dir_cntrl104.power_state.pwrStateResidencyTicks::UNDEFINED   2147483750                       # Cumulative time (in ticks) in various power states (Tick)
system.ruby.dir_cntrl104.requestToDir.m_msg_count        91136                       # Number of messages passed the buffer (Count)
system.ruby.dir_cntrl104.requestToDir.m_buf_msgs     0.010610                       # Average number of messages in buffer ((Count/Tick))
system.ruby.dir_cntrl104.responseToDir.m_msg_count        59285                       # Number of messages passed the buffer (Count)
system.ruby.dir_cntrl104.responseToDir.m_buf_msgs     0.006902                       # Average number of messages in buffer ((Count/Tick))
system.ruby.dir_cntrl105.power_state.pwrStateResidencyTicks::UNDEFINED   2147483750                       # Cumulative time (in ticks) in various power states (Tick)
system.ruby.dir_cntrl105.requestToDir.m_msg_count        90917                       # Number of messages passed the buffer (Count)
system.ruby.dir_cntrl105.requestToDir.m_buf_msgs     0.010584                       # Average number of messages in buffer ((Count/Tick))
system.ruby.dir_cntrl105.responseToDir.m_msg_count        59744                       # Number of messages passed the buffer (Count)
system.ruby.dir_cntrl105.responseToDir.m_buf_msgs     0.006955                       # Average number of messages in buffer ((Count/Tick))
system.ruby.dir_cntrl106.power_state.pwrStateResidencyTicks::UNDEFINED   2147483750                       # Cumulative time (in ticks) in various power states (Tick)
system.ruby.dir_cntrl106.requestToDir.m_msg_count        91434                       # Number of messages passed the buffer (Count)
system.ruby.dir_cntrl106.requestToDir.m_buf_msgs     0.010644                       # Average number of messages in buffer ((Count/Tick))
system.ruby.dir_cntrl106.responseToDir.m_msg_count        59344                       # Number of messages passed the buffer (Count)
system.ruby.dir_cntrl106.responseToDir.m_buf_msgs     0.006909                       # Average number of messages in buffer ((Count/Tick))
system.ruby.dir_cntrl107.power_state.pwrStateResidencyTicks::UNDEFINED   2147483750                       # Cumulative time (in ticks) in various power states (Tick)
system.ruby.dir_cntrl107.requestToDir.m_msg_count        91366                       # Number of messages passed the buffer (Count)
system.ruby.dir_cntrl107.requestToDir.m_buf_msgs     0.010636                       # Average number of messages in buffer ((Count/Tick))
system.ruby.dir_cntrl107.responseToDir.m_msg_count        59276                       # Number of messages passed the buffer (Count)
system.ruby.dir_cntrl107.responseToDir.m_buf_msgs     0.006901                       # Average number of messages in buffer ((Count/Tick))
system.ruby.dir_cntrl108.power_state.pwrStateResidencyTicks::UNDEFINED   2147483750                       # Cumulative time (in ticks) in various power states (Tick)
system.ruby.dir_cntrl108.requestToDir.m_msg_count        90841                       # Number of messages passed the buffer (Count)
system.ruby.dir_cntrl108.requestToDir.m_buf_msgs     0.010575                       # Average number of messages in buffer ((Count/Tick))
system.ruby.dir_cntrl108.responseToDir.m_msg_count        59238                       # Number of messages passed the buffer (Count)
system.ruby.dir_cntrl108.responseToDir.m_buf_msgs     0.006896                       # Average number of messages in buffer ((Count/Tick))
system.ruby.dir_cntrl109.power_state.pwrStateResidencyTicks::UNDEFINED   2147483750                       # Cumulative time (in ticks) in various power states (Tick)
system.ruby.dir_cntrl109.requestToDir.m_msg_count        91024                       # Number of messages passed the buffer (Count)
system.ruby.dir_cntrl109.requestToDir.m_buf_msgs     0.010597                       # Average number of messages in buffer ((Count/Tick))
system.ruby.dir_cntrl109.responseToDir.m_msg_count        59535                       # Number of messages passed the buffer (Count)
system.ruby.dir_cntrl109.responseToDir.m_buf_msgs     0.006931                       # Average number of messages in buffer ((Count/Tick))
system.ruby.dir_cntrl11.power_state.pwrStateResidencyTicks::UNDEFINED   2147483750                       # Cumulative time (in ticks) in various power states (Tick)
system.ruby.dir_cntrl11.requestToDir.m_msg_count        91155                       # Number of messages passed the buffer (Count)
system.ruby.dir_cntrl11.requestToDir.m_buf_msgs     0.010612                       # Average number of messages in buffer ((Count/Tick))
system.ruby.dir_cntrl11.responseToDir.m_msg_count        59594                       # Number of messages passed the buffer (Count)
[...]
system.ruby.network.sankey.vcvn13.vcvn5             0                       (Unspecified)
system.ruby.network.sankey.vcvn13.vcvn6             0                       (Unspecified)
system.ruby.network.sankey.vcvn13.vcvn7             0                       (Unspecified)
system.ruby.network.sankey.vcvn13.vcvn8             0                       (Unspecified)
system.ruby.network.sankey.vcvn13.vcvn9             0                       (Unspecified)
system.ruby.network.sankey.vcvn14.vcvn0             0                       (Unspecified)
system.ruby.network.sankey.vcvn14.vcvn1             0                       (Unspecified)
system.ruby.network.sankey.vcvn14.vcvn10            0                       (Unspecified)
system.ruby.network.sankey.vcvn14.vcvn11            0                       (Unspecified)
system.ruby.network.sankey.vcvn14.vcvn12      5436043                       (Unspecified)
system.ruby.network.sankey.vcvn14.vcvn13       783773                       (Unspecified)
system.ruby.network.sankey.vcvn14.vcvn14        61515                       (Unspecified)
system.ruby.network.sankey.vcvn14.vcvn15         3095                       (Unspecified)
system.ruby.network.sankey.vcvn14.vcvn16      1204845                       (Unspecified)
system.ruby.network.sankey.vcvn14.vcvn17       781439                       (Unspecified)
system.ruby.network.sankey.vcvn14.vcvn2             0                       (Unspecified)
system.ruby.network.sankey.vcvn14.vcvn3             0                       (Unspecified)
system.ruby.network.sankey.vcvn14.vcvn4             0                       (Unspecified)
system.ruby.network.sankey.vcvn14.vcvn5             0                       (Unspecified)
system.ruby.network.sankey.vcvn14.vcvn6             0                       (Unspecified)
system.ruby.network.sankey.vcvn14.vcvn7             0                       (Unspecified)
system.ruby.network.sankey.vcvn14.vcvn8             0                       (Unspecified)
system.ruby.network.sankey.vcvn14.vcvn9             0                       (Unspecified)
system.ruby.network.sankey.vcvn15.vcvn0             0                       (Unspecified)
system.ruby.network.sankey.vcvn15.vcvn1             0                       (Unspecified)
system.ruby.network.sankey.vcvn15.vcvn10            0                       (Unspecified)
system.ruby.network.sankey.vcvn15.vcvn11            0                       (Unspecified)
system.ruby.network.sankey.vcvn15.vcvn12      4499220                       (Unspecified)
system.ruby.network.sankey.vcvn15.vcvn13       647117                       (Unspecified)
system.ruby.network.sankey.vcvn15.vcvn14        51985                       (Unspecified)
system.ruby.network.sankey.vcvn15.vcvn15         2575                       (Unspecified)
system.ruby.network.sankey.vcvn15.vcvn16      1085785                       (Unspecified)
system.ruby.network.sankey.vcvn15.vcvn17       649540                       (Unspecified)
system.ruby.network.sankey.vcvn15.vcvn2             0                       (Unspecified)
system.ruby.network.sankey.vcvn15.vcvn3             0                       (Unspecified)
system.ruby.network.sankey.vcvn15.vcvn4             0                       (Unspecified)
system.ruby.network.sankey.vcvn15.vcvn5             0                       (Unspecified)
system.ruby.network.sankey.vcvn15.vcvn6             0                       (Unspecified)
system.ruby.network.sankey.vcvn15.vcvn7             0                       (Unspecified)
system.ruby.network.sankey.vcvn15.vcvn8             0                       (Unspecified)
system.ruby.network.sankey.vcvn15.vcvn9             0                       (Unspecified)
system.ruby.network.sankey.vcvn16.vcvn0             0                       (Unspecified)
system.ruby.network.sankey.vcvn16.vcvn1             0                       (Unspecified)
system.ruby.network.sankey.vcvn16.vcvn10            0                       (Unspecified)
system.ruby.network.sankey.vcvn16.vcvn11            0                       (Unspecified)
system.ruby.network.sankey.vcvn16.vcvn12            0                       (Unspecified)
system.ruby.network.sankey.vcvn16.vcvn13            0                       (Unspecified)
system.ruby.network.sankey.vcvn16.vcvn14            0                       (Unspecified)
system.ruby.network.sankey.vcvn16.vcvn15            0                       (Unspecified)
system.ruby.network.sankey.vcvn16.vcvn16      3123065                       (Unspecified)
system.ruby.network.sankey.vcvn16.vcvn17            0                       (Unspecified)
system.ruby.network.sankey.vcvn16.vcvn2             0                       (Unspecified)
system.ruby.network.sankey.vcvn16.vcvn3             0                       (Unspecified)
system.ruby.network.sankey.vcvn16.vcvn4             0                       (Unspecified)
system.ruby.network.sankey.vcvn16.vcvn5             0                       (Unspecified)
system.ruby.network.sankey.vcvn16.vcvn6             0                       (Unspecified)
system.ruby.network.sankey.vcvn16.vcvn7             0                       (Unspecified)
system.ruby.network.sankey.vcvn16.vcvn8             0                       (Unspecified)
system.ruby.network.sankey.vcvn16.vcvn9             0                       (Unspecified)
system.ruby.network.sankey.vcvn17.vcvn0             0                       (Unspecified)
system.ruby.network.sankey.vcvn17.vcvn1             0                       (Unspecified)
system.ruby.network.sankey.vcvn17.vcvn10            0                       (Unspecified)
system.ruby.network.sankey.vcvn17.vcvn11            0                       (Unspecified)
system.ruby.network.sankey.vcvn17.vcvn12            0                       (Unspecified)
system.ruby.network.sankey.vcvn17.vcvn13            0                       (Unspecified)
system.ruby.network.sankey.vcvn17.vcvn14            0                       (Unspecified)
system.ruby.network.sankey.vcvn17.vcvn15            0                       (Unspecified)
system.ruby.network.sankey.vcvn17.vcvn16            0                       (Unspecified)
system.ruby.network.sankey.vcvn17.vcvn17      2927021                       (Unspecified)
system.ruby.network.sankey.vcvn17.vcvn2             0                       (Unspecified)
system.ruby.network.sankey.vcvn17.vcvn3             0                       (Unspecified)
system.ruby.network.sankey.vcvn17.vcvn4             0                       (Unspecified)
system.ruby.network.sankey.vcvn17.vcvn5             0                       (Unspecified)
system.ruby.network.sankey.vcvn17.vcvn6             0                       (Unspecified)
system.ruby.network.sankey.vcvn17.vcvn7             0                       (Unspecified)
system.ruby.network.sankey.vcvn17.vcvn8             0                       (Unspecified)
system.ruby.network.sankey.vcvn17.vcvn9             0                       (Unspecified)
system.ruby.network.sankey.vcvn2.vcvn0        2627530                       (Unspecified)
system.ruby.network.sankey.vcvn2.vcvn1         138846                       (Unspecified)
system.ruby.network.sankey.vcvn2.vcvn10             0                       (Unspecified)
system.ruby.network.sankey.vcvn2.vcvn11             0                       (Unspecified)
system.ruby.network.sankey.vcvn2.vcvn12             0                       (Unspecified)
system.ruby.network.sankey.vcvn2.vcvn13             0                       (Unspecified)
system.ruby.network.sankey.vcvn2.vcvn14             0                       (Unspecified)
system.ruby.network.sankey.vcvn2.vcvn15             0                       (Unspecified)
system.ruby.network.sankey.vcvn2.vcvn16             0                       (Unspecified)
system.ruby.network.sankey.vcvn2.vcvn17             0                       (Unspecified)
system.ruby.network.sankey.vcvn2.vcvn2           3533                       (Unspecified)
system.ruby.network.sankey.vcvn2.vcvn3             45                       (Unspecified)
system.ruby.network.sankey.vcvn2.vcvn4           1817                       (Unspecified)
system.ruby.network.sankey.vcvn2.vcvn5           3626                       (Unspecified)
system.ruby.network.sankey.vcvn2.vcvn6              0                       (Unspecified)
system.ruby.network.sankey.vcvn2.vcvn7              0                       (Unspecified)
system.ruby.network.sankey.vcvn2.vcvn8              0                       (Unspecified)
system.ruby.network.sankey.vcvn2.vcvn9              0                       (Unspecified)
system.ruby.network.sankey.vcvn3.vcvn0        2626625                       (Unspecified)
system.ruby.network.sankey.vcvn3.vcvn1         139742                       (Unspecified)
system.ruby.network.sankey.vcvn3.vcvn10             0                       (Unspecified)
system.ruby.network.sankey.vcvn3.vcvn11             0                       (Unspecified)
system.ruby.network.sankey.vcvn3.vcvn12             0                       (Unspecified)
system.ruby.network.sankey.vcvn3.vcvn13             0                       (Unspecified)
system.ruby.network.sankey.vcvn3.vcvn14             0                       (Unspecified)
system.ruby.network.sankey.vcvn3.vcvn15             0                       (Unspecified)
system.ruby.network.sankey.vcvn3.vcvn16             0                       (Unspecified)
system.ruby.network.sankey.vcvn3.vcvn17             0                       (Unspecified)
system.ruby.network.sankey.vcvn3.vcvn2           3443                       (Unspecified)
system.ruby.network.sankey.vcvn3.vcvn3             53                       (Unspecified)
system.ruby.network.sankey.vcvn3.vcvn4           1792                       (Unspecified)
system.ruby.network.sankey.vcvn3.vcvn5           3688                       (Unspecified)
system.ruby.network.sankey.vcvn3.vcvn6              0                       (Unspecified)
system.ruby.network.sankey.vcvn3.vcvn7              0                       (Unspecified)
system.ruby.network.sankey.vcvn3.vcvn8              0                       (Unspecified)
system.ruby.network.sankey.vcvn3.vcvn9              0                       (Unspecified)
system.ruby.network.sankey.vcvn4.vcvn0              0                       (Unspecified)
system.ruby.network.sankey.vcvn4.vcvn1              0                       (Unspecified)
system.ruby.network.sankey.vcvn4.vcvn10             0                       (Unspecified)
system.ruby.network.sankey.vcvn4.vcvn11             0                       (Unspecified)
system.ruby.network.sankey.vcvn4.vcvn12             0                       (Unspecified)
system.ruby.network.sankey.vcvn4.vcvn13             0                       (Unspecified)
system.ruby.network.sankey.vcvn4.vcvn14             0                       (Unspecified)
system.ruby.network.sankey.vcvn4.vcvn15             0                       (Unspecified)
system.ruby.network.sankey.vcvn4.vcvn16             0                       (Unspecified)
system.ruby.network.sankey.vcvn4.vcvn17             0                       (Unspecified)
system.ruby.network.sankey.vcvn4.vcvn2              0                       (Unspecified)
system.ruby.network.sankey.vcvn4.vcvn3              0                       (Unspecified)
system.ruby.network.sankey.vcvn4.vcvn4         778260                       (Unspecified)
system.ruby.network.sankey.vcvn4.vcvn5              0                       (Unspecified)
system.ruby.network.sankey.vcvn4.vcvn6              0                       (Unspecified)
system.ruby.network.sankey.vcvn4.vcvn7              0                       (Unspecified)
system.ruby.network.sankey.vcvn4.vcvn8              0                       (Unspecified)
system.ruby.network.sankey.vcvn4.vcvn9              0                       (Unspecified)
system.ruby.network.sankey.vcvn5.vcvn0              0                       (Unspecified)
system.ruby.network.sankey.vcvn5.vcvn1              0                       (Unspecified)
system.ruby.network.sankey.vcvn5.vcvn10             0                       (Unspecified)
system.ruby.network.sankey.vcvn5.vcvn11             0                       (Unspecified)
system.ruby.network.sankey.vcvn5.vcvn12             0                       (Unspecified)
system.ruby.network.sankey.vcvn5.vcvn13             0                       (Unspecified)
system.ruby.network.sankey.vcvn5.vcvn14             0                       (Unspecified)
system.ruby.network.sankey.vcvn5.vcvn15             0                       (Unspecified)
system.ruby.network.sankey.vcvn5.vcvn16             0                       (Unspecified)
system.ruby.network.sankey.vcvn5.vcvn17             0                       (Unspecified)
system.ruby.network.sankey.vcvn5.vcvn2              0                       (Unspecified)
system.ruby.network.sankey.vcvn5.vcvn3              0                       (Unspecified)
system.ruby.network.sankey.vcvn5.vcvn4              0                       (Unspecified)
system.ruby.network.sankey.vcvn5.vcvn5        2707565                       (Unspecified)
system.ruby.network.sankey.vcvn5.vcvn6              0                       (Unspecified)
system.ruby.network.sankey.vcvn5.vcvn7              0                       (Unspecified)
system.ruby.network.sankey.vcvn5.vcvn8              0                       (Unspecified)
system.ruby.network.sankey.vcvn5.vcvn9              0                       (Unspecified)
system.ruby.network.sankey.vcvn6.vcvn0              0                       (Unspecified)
system.ruby.network.sankey.vcvn6.vcvn1              0                       (Unspecified)
system.ruby.network.sankey.vcvn6.vcvn10             0                       (Unspecified)
system.ruby.network.sankey.vcvn6.vcvn11             0                       (Unspecified)
system.ruby.network.sankey.vcvn6.vcvn12             0                       (Unspecified)
system.ruby.network.sankey.vcvn6.vcvn13             0                       (Unspecified)
system.ruby.network.sankey.vcvn6.vcvn14             0                       (Unspecified)
system.ruby.network.sankey.vcvn6.vcvn15             0                       (Unspecified)
system.ruby.network.sankey.vcvn6.vcvn16             0                       (Unspecified)
system.ruby.network.sankey.vcvn6.vcvn17             0                       (Unspecified)
system.ruby.network.sankey.vcvn6.vcvn2              0                       (Unspecified)
system.ruby.network.sankey.vcvn6.vcvn3              0                       (Unspecified)
system.ruby.network.sankey.vcvn6.vcvn4              0                       (Unspecified)
system.ruby.network.sankey.vcvn6.vcvn5              0                       (Unspecified)
system.ruby.network.sankey.vcvn6.vcvn6              0                       (Unspecified)
system.ruby.network.sankey.vcvn6.vcvn7              0                       (Unspecified)
system.ruby.network.sankey.vcvn6.vcvn8              0                       (Unspecified)
system.ruby.network.sankey.vcvn6.vcvn9              0                       (Unspecified)
system.ruby.network.sankey.vcvn7.vcvn0              0                       (Unspecified)
system.ruby.network.sankey.vcvn7.vcvn1              0                       (Unspecified)
system.ruby.network.sankey.vcvn7.vcvn10             0                       (Unspecified)
system.ruby.network.sankey.vcvn7.vcvn11             0                       (Unspecified)
system.ruby.network.sankey.vcvn7.vcvn12             0                       (Unspecified)
system.ruby.network.sankey.vcvn7.vcvn13             0                       (Unspecified)
system.ruby.network.sankey.vcvn7.vcvn14             0                       (Unspecified)
system.ruby.network.sankey.vcvn7.vcvn15             0                       (Unspecified)
system.ruby.network.sankey.vcvn7.vcvn16             0                       (Unspecified)
system.ruby.network.sankey.vcvn7.vcvn17             0                       (Unspecified)
system.ruby.network.sankey.vcvn7.vcvn2              0                       (Unspecified)
system.ruby.network.sankey.vcvn7.vcvn3              0                       (Unspecified)
system.ruby.network.sankey.vcvn7.vcvn4              0                       (Unspecified)
system.ruby.network.sankey.vcvn7.vcvn5              0                       (Unspecified)
system.ruby.network.sankey.vcvn7.vcvn6              0                       (Unspecified)
system.ruby.network.sankey.vcvn7.vcvn7              0                       (Unspecified)
system.ruby.network.sankey.vcvn7.vcvn8              0                       (Unspecified)
system.ruby.network.sankey.vcvn7.vcvn9              0                       (Unspecified)
system.ruby.network.sankey.vcvn8.vcvn0              0                       (Unspecified)
system.ruby.network.sankey.vcvn8.vcvn1              0                       (Unspecified)
system.ruby.network.sankey.vcvn8.vcvn10             0                       (Unspecified)
system.ruby.network.sankey.vcvn8.vcvn11             0                       (Unspecified)
system.ruby.network.sankey.vcvn8.vcvn12             0                       (Unspecified)
system.ruby.network.sankey.vcvn8.vcvn13             0                       (Unspecified)
system.ruby.network.sankey.vcvn8.vcvn14             0                       (Unspecified)
system.ruby.network.sankey.vcvn8.vcvn15             0                       (Unspecified)
system.ruby.network.sankey.vcvn8.vcvn16             0                       (Unspecified)
system.ruby.network.sankey.vcvn8.vcvn17             0                       (Unspecified)
system.ruby.network.sankey.vcvn8.vcvn2              0                       (Unspecified)
system.ruby.network.sankey.vcvn8.vcvn3              0                       (Unspecified)
system.ruby.network.sankey.vcvn8.vcvn4              0                       (Unspecified)
system.ruby.network.sankey.vcvn8.vcvn5              0                       (Unspecified)
system.ruby.network.sankey.vcvn8.vcvn6              0                       (Unspecified)
system.ruby.network.sankey.vcvn8.vcvn7              0                       (Unspecified)
system.ruby.network.sankey.vcvn8.vcvn8              0                       (Unspecified)
system.ruby.network.sankey.vcvn8.vcvn9              0                       (Unspecified)
system.ruby.network.sankey.vcvn9.vcvn0              0                       (Unspecified)
system.ruby.network.sankey.vcvn9.vcvn1              0                       (Unspecified)
system.ruby.network.sankey.vcvn9.vcvn10             0                       (Unspecified)
system.ruby.network.sankey.vcvn9.vcvn11             0                       (Unspecified)
system.ruby.network.sankey.vcvn9.vcvn12             0                       (Unspecified)
system.ruby.network.sankey.vcvn9.vcvn13             0                       (Unspecified)
system.ruby.network.sankey.vcvn9.vcvn14             0                       (Unspecified)
system.ruby.network.sankey.vcvn9.vcvn15             0                       (Unspecified)
system.ruby.network.sankey.vcvn9.vcvn16             0                       (Unspecified)
system.ruby.network.sankey.vcvn9.vcvn17             0                       (Unspecified)
system.ruby.network.sankey.vcvn9.vcvn2              0                       (Unspecified)
system.ruby.network.sankey.vcvn9.vcvn3              0                       (Unspecified)
system.ruby.network.sankey.vcvn9.vcvn4              0                       (Unspecified)
system.ruby.network.sankey.vcvn9.vcvn5              0                       (Unspecified)
system.ruby.network.sankey.vcvn9.vcvn6              0                       (Unspecified)
system.ruby.network.sankey.vcvn9.vcvn7              0                       (Unspecified)
system.ruby.network.sankey.vcvn9.vcvn8              0                       (Unspecified)
system.ruby.network.sankey.vcvn9.vcvn9              0                       (Unspecified)

---------- End Simulation Statistics   ----------
