gem5 Simulator System.  https://www.gem5.org
gem5 is copyrighted software; use the --copyright option for details.

gem5 version 22.0.0.2
gem5 compiled Jun 17 2023 14:31:12
gem5 started Nov 18 2023 15:49:04
gem5 executing on mnemosyne14.ecn.purdue.edu, pid 23404
command line: ./build/Garnet_standalone/gem5.fast -d ./synth_outputs/simple/2b/mixed/mclb_hops_4_6_40cpus_4xdirs_4.0GHz/coh/kite_small/0_16/ configs/auto_top/auto_top_synth.py --topology EscapeVirtualNetworks --noi_routers 20 --sim-cycles 2147483647 --injectionrate 0.16 --noc_clk 4.0GHz --sys-clock 4.0GHz --ruby-clock 4.0GHz --noi_clk 3.6GHz --router_map_file configs/topologies/paper_solutions/kite_small.map --flat_vn_map_file configs/topologies/vn_maps_mclb/kite_small_mclb_hops_4vns.vn --flat_nr_map_file configs/topologies/nr_list_mclb/kite_small_mclb.nrl --ruby --mem_or_coh coh --mem-size 320000000 --num-dirs 160 --num-cpus 40 --network garnet --mem-type SimpleMemory --routing-algorithm 2 --use_escape_vns --synth_traffic --vcs-per-vnet 6 --evn_deadlock_partition 2 --evn_n_deadlock_free 1 --evn_min_n_deadlock_free 4

info: Standard input is not a terminal, disabling listeners.
ingesting configs/topologies/vn_maps_mclb/kite_small_mclb_hops_4vns.vn
cpus(40)=[<m5.objects.GarnetSyntheticTraffic.GarnetSyntheticTraffic object at 0x7fc295f990f0>, <m5.objects.GarnetSyntheticTraffic.GarnetSyntheticTraffic object at 0x7fc295f99dd8>, <m5.objects.GarnetSyntheticTraffic.GarnetSyntheticTraffic object at 0x7fc295b150f0>, <m5.objects.GarnetSyntheticTraffic.GarnetSyntheticTraffic object at 0x7fc295b153c8>, <m5.objects.GarnetSyntheticTraffic.GarnetSyntheticTraffic object at 0x7fc295b156a0>, <m5.objects.GarnetSyntheticTraffic.GarnetSyntheticTraffic object at 0x7fc295b15978>, <m5.objects.GarnetSyntheticTraffic.GarnetSyntheticTraffic object at 0x7fc295b15c50>, <m5.objects.GarnetSyntheticTraffic.GarnetSyntheticTraffic object at 0x7fc295b15f28>, <m5.objects.GarnetSyntheticTraffic.GarnetSyntheticTraffic object at 0x7fc295b1e240>, <m5.objects.GarnetSyntheticTraffic.GarnetSyntheticTraffic object at 0x7fc295b1e518>, <m5.objects.GarnetSyntheticTraffic.GarnetSyntheticTraffic object at 0x7fc295b1e7f0>, <m5.objects.GarnetSyntheticTraffic.GarnetSyntheticTraffic object at 0x7fc295b1eac8>, <m5.objects.GarnetSyntheticTraffic.GarnetSyntheticTraffic object at 0x7fc295f997b8>, <m5.objects.GarnetSyntheticTraffic.GarnetSyntheticTraffic object at 0x7fc295f88e80>, <m5.objects.GarnetSyntheticTraffic.GarnetSyntheticTraffic object at 0x7fc295f93668>, <m5.objects.GarnetSyntheticTraffic.GarnetSyntheticTraffic object at 0x7fc295f93cc0>, <m5.objects.GarnetSyntheticTraffic.GarnetSyntheticTraffic object at 0x7fc295b1ed30>, <m5.objects.GarnetSyntheticTraffic.GarnetSyntheticTraffic object at 0x7fc295b2a048>, <m5.objects.GarnetSyntheticTraffic.GarnetSyntheticTraffic object at 0x7fc295b2a320>, <m5.objects.GarnetSyntheticTraffic.GarnetSyntheticTraffic object at 0x7fc295b2a5f8>, <m5.objects.GarnetSyntheticTraffic.GarnetSyntheticTraffic object at 0x7fc295b2a8d0>, <m5.objects.GarnetSyntheticTraffic.GarnetSyntheticTraffic object at 0x7fc295b2aba8>, <m5.objects.GarnetSyntheticTraffic.GarnetSyntheticTraffic object at 0x7fc295b2ae80>, <m5.objects.GarnetSyntheticTraffic.GarnetSyntheticTraffic object at 0x7fc295b31198>, <m5.objects.GarnetSyntheticTraffic.GarnetSyntheticTraffic object at 0x7fc295b31470>, <m5.objects.GarnetSyntheticTraffic.GarnetSyntheticTraffic object at 0x7fc295b31748>, <m5.objects.GarnetSyntheticTraffic.GarnetSyntheticTraffic object at 0x7fc295b31a20>, <m5.objects.GarnetSyntheticTraffic.GarnetSyntheticTraffic object at 0x7fc295b31cf8>, <m5.objects.GarnetSyntheticTraffic.GarnetSyntheticTraffic object at 0x7fc295b31fd0>, <m5.objects.GarnetSyntheticTraffic.GarnetSyntheticTraffic object at 0x7fc295b392e8>, <m5.objects.GarnetSyntheticTraffic.GarnetSyntheticTraffic object at 0x7fc295b395c0>, <m5.objects.GarnetSyntheticTraffic.GarnetSyntheticTraffic object at 0x7fc295b39898>, <m5.objects.GarnetSyntheticTraffic.GarnetSyntheticTraffic object at 0x7fc295b39b70>, <m5.objects.GarnetSyntheticTraffic.GarnetSyntheticTraffic object at 0x7fc295b39e48>, <m5.objects.GarnetSyntheticTraffic.GarnetSyntheticTraffic object at 0x7fc295b42160>, <m5.objects.GarnetSyntheticTraffic.GarnetSyntheticTraffic object at 0x7fc295b42438>, <m5.objects.GarnetSyntheticTraffic.GarnetSyntheticTraffic object at 0x7fc295b42710>, <m5.objects.GarnetSyntheticTraffic.GarnetSyntheticTraffic object at 0x7fc295b429e8>, <m5.objects.GarnetSyntheticTraffic.GarnetSyntheticTraffic object at 0x7fc295b42cc0>, <m5.objects.GarnetSyntheticTraffic.GarnetSyntheticTraffic object at 0x7fc295b42f98>])
ingesting configs/topologies/nr_list_mclb/kite_small_mclb.nrl
ingesting configs/topologies/vn_maps_mclb/kite_small_mclb_hops_4vns.vn
ext_cdc_required = True
