
---------- Begin Simulation Statistics ----------
simSeconds                                   0.002147                       # Number of seconds simulated (Second)
simTicks                                   2147483750                       # Number of ticks simulated (Tick)
finalTick                                  2147483750                       # Number of ticks from beginning of simulation (restored from checkpoints and never reset) (Tick)
simFreq                                  1000000000000                       # The number of ticks per simulated second ((Tick/Second))
hostSeconds                                  17778.61                       # Real time elapsed on the host (Second)
hostTickRate                                   120790                       # The number of ticks simulated per host second (ticks/s) ((Tick/Second))
hostMemory                                   31295804                       # Number of bytes of host memory used (Byte)
system.clk_domain.clock                           250                       # Clock period in ticks (Tick)
system.cpu0.power_state.pwrStateResidencyTicks::UNDEFINED   2147483750                       # Cumulative time (in ticks) in various power states (Tick)
system.cpu1.power_state.pwrStateResidencyTicks::UNDEFINED   2147483750                       # Cumulative time (in ticks) in various power states (Tick)
system.cpu10.power_state.pwrStateResidencyTicks::UNDEFINED   2147483750                       # Cumulative time (in ticks) in various power states (Tick)
system.cpu11.power_state.pwrStateResidencyTicks::UNDEFINED   2147483750                       # Cumulative time (in ticks) in various power states (Tick)
system.cpu12.power_state.pwrStateResidencyTicks::UNDEFINED   2147483750                       # Cumulative time (in ticks) in various power states (Tick)
system.cpu13.power_state.pwrStateResidencyTicks::UNDEFINED   2147483750                       # Cumulative time (in ticks) in various power states (Tick)
system.cpu14.power_state.pwrStateResidencyTicks::UNDEFINED   2147483750                       # Cumulative time (in ticks) in various power states (Tick)
system.cpu15.power_state.pwrStateResidencyTicks::UNDEFINED   2147483750                       # Cumulative time (in ticks) in various power states (Tick)
system.cpu16.power_state.pwrStateResidencyTicks::UNDEFINED   2147483750                       # Cumulative time (in ticks) in various power states (Tick)
system.cpu17.power_state.pwrStateResidencyTicks::UNDEFINED   2147483750                       # Cumulative time (in ticks) in various power states (Tick)
system.cpu18.power_state.pwrStateResidencyTicks::UNDEFINED   2147483750                       # Cumulative time (in ticks) in various power states (Tick)
system.cpu19.power_state.pwrStateResidencyTicks::UNDEFINED   2147483750                       # Cumulative time (in ticks) in various power states (Tick)
system.cpu2.power_state.pwrStateResidencyTicks::UNDEFINED   2147483750                       # Cumulative time (in ticks) in various power states (Tick)
system.cpu20.power_state.pwrStateResidencyTicks::UNDEFINED   2147483750                       # Cumulative time (in ticks) in various power states (Tick)
system.cpu21.power_state.pwrStateResidencyTicks::UNDEFINED   2147483750                       # Cumulative time (in ticks) in various power states (Tick)
system.cpu22.power_state.pwrStateResidencyTicks::UNDEFINED   2147483750                       # Cumulative time (in ticks) in various power states (Tick)
system.cpu23.power_state.pwrStateResidencyTicks::UNDEFINED   2147483750                       # Cumulative time (in ticks) in various power states (Tick)
system.cpu24.power_state.pwrStateResidencyTicks::UNDEFINED   2147483750                       # Cumulative time (in ticks) in various power states (Tick)
system.cpu25.power_state.pwrStateResidencyTicks::UNDEFINED   2147483750                       # Cumulative time (in ticks) in various power states (Tick)
system.cpu26.power_state.pwrStateResidencyTicks::UNDEFINED   2147483750                       # Cumulative time (in ticks) in various power states (Tick)
system.cpu27.power_state.pwrStateResidencyTicks::UNDEFINED   2147483750                       # Cumulative time (in ticks) in various power states (Tick)
system.cpu28.power_state.pwrStateResidencyTicks::UNDEFINED   2147483750                       # Cumulative time (in ticks) in various power states (Tick)
system.cpu29.power_state.pwrStateResidencyTicks::UNDEFINED   2147483750                       # Cumulative time (in ticks) in various power states (Tick)
system.cpu3.power_state.pwrStateResidencyTicks::UNDEFINED   2147483750                       # Cumulative time (in ticks) in various power states (Tick)
system.cpu30.power_state.pwrStateResidencyTicks::UNDEFINED   2147483750                       # Cumulative time (in ticks) in various power states (Tick)
system.cpu31.power_state.pwrStateResidencyTicks::UNDEFINED   2147483750                       # Cumulative time (in ticks) in various power states (Tick)
system.cpu32.power_state.pwrStateResidencyTicks::UNDEFINED   2147483750                       # Cumulative time (in ticks) in various power states (Tick)
system.cpu33.power_state.pwrStateResidencyTicks::UNDEFINED   2147483750                       # Cumulative time (in ticks) in various power states (Tick)
system.cpu34.power_state.pwrStateResidencyTicks::UNDEFINED   2147483750                       # Cumulative time (in ticks) in various power states (Tick)
system.cpu35.power_state.pwrStateResidencyTicks::UNDEFINED   2147483750                       # Cumulative time (in ticks) in various power states (Tick)
system.cpu36.power_state.pwrStateResidencyTicks::UNDEFINED   2147483750                       # Cumulative time (in ticks) in various power states (Tick)
system.cpu37.power_state.pwrStateResidencyTicks::UNDEFINED   2147483750                       # Cumulative time (in ticks) in various power states (Tick)
system.cpu38.power_state.pwrStateResidencyTicks::UNDEFINED   2147483750                       # Cumulative time (in ticks) in various power states (Tick)
system.cpu39.power_state.pwrStateResidencyTicks::UNDEFINED   2147483750                       # Cumulative time (in ticks) in various power states (Tick)
system.cpu4.power_state.pwrStateResidencyTicks::UNDEFINED   2147483750                       # Cumulative time (in ticks) in various power states (Tick)
system.cpu40.power_state.pwrStateResidencyTicks::UNDEFINED   2147483750                       # Cumulative time (in ticks) in various power states (Tick)
system.cpu41.power_state.pwrStateResidencyTicks::UNDEFINED   2147483750                       # Cumulative time (in ticks) in various power states (Tick)
system.cpu42.power_state.pwrStateResidencyTicks::UNDEFINED   2147483750                       # Cumulative time (in ticks) in various power states (Tick)
system.cpu43.power_state.pwrStateResidencyTicks::UNDEFINED   2147483750                       # Cumulative time (in ticks) in various power states (Tick)
system.cpu44.power_state.pwrStateResidencyTicks::UNDEFINED   2147483750                       # Cumulative time (in ticks) in various power states (Tick)
system.cpu45.power_state.pwrStateResidencyTicks::UNDEFINED   2147483750                       # Cumulative time (in ticks) in various power states (Tick)
system.cpu46.power_state.pwrStateResidencyTicks::UNDEFINED   2147483750                       # Cumulative time (in ticks) in various power states (Tick)
system.cpu47.power_state.pwrStateResidencyTicks::UNDEFINED   2147483750                       # Cumulative time (in ticks) in various power states (Tick)
system.cpu48.power_state.pwrStateResidencyTicks::UNDEFINED   2147483750                       # Cumulative time (in ticks) in various power states (Tick)
system.cpu49.power_state.pwrStateResidencyTicks::UNDEFINED   2147483750                       # Cumulative time (in ticks) in various power states (Tick)
system.cpu5.power_state.pwrStateResidencyTicks::UNDEFINED   2147483750                       # Cumulative time (in ticks) in various power states (Tick)
system.cpu50.power_state.pwrStateResidencyTicks::UNDEFINED   2147483750                       # Cumulative time (in ticks) in various power states (Tick)
system.cpu51.power_state.pwrStateResidencyTicks::UNDEFINED   2147483750                       # Cumulative time (in ticks) in various power states (Tick)
system.cpu52.power_state.pwrStateResidencyTicks::UNDEFINED   2147483750                       # Cumulative time (in ticks) in various power states (Tick)
system.cpu53.power_state.pwrStateResidencyTicks::UNDEFINED   2147483750                       # Cumulative time (in ticks) in various power states (Tick)
system.cpu54.power_state.pwrStateResidencyTicks::UNDEFINED   2147483750                       # Cumulative time (in ticks) in various power states (Tick)
system.cpu55.power_state.pwrStateResidencyTicks::UNDEFINED   2147483750                       # Cumulative time (in ticks) in various power states (Tick)
system.cpu56.power_state.pwrStateResidencyTicks::UNDEFINED   2147483750                       # Cumulative time (in ticks) in various power states (Tick)
system.cpu57.power_state.pwrStateResidencyTicks::UNDEFINED   2147483750                       # Cumulative time (in ticks) in various power states (Tick)
system.cpu58.power_state.pwrStateResidencyTicks::UNDEFINED   2147483750                       # Cumulative time (in ticks) in various power states (Tick)
system.cpu59.power_state.pwrStateResidencyTicks::UNDEFINED   2147483750                       # Cumulative time (in ticks) in various power states (Tick)
system.cpu6.power_state.pwrStateResidencyTicks::UNDEFINED   2147483750                       # Cumulative time (in ticks) in various power states (Tick)
system.cpu60.power_state.pwrStateResidencyTicks::UNDEFINED   2147483750                       # Cumulative time (in ticks) in various power states (Tick)
system.cpu61.power_state.pwrStateResidencyTicks::UNDEFINED   2147483750                       # Cumulative time (in ticks) in various power states (Tick)
system.cpu62.power_state.pwrStateResidencyTicks::UNDEFINED   2147483750                       # Cumulative time (in ticks) in various power states (Tick)
system.cpu63.power_state.pwrStateResidencyTicks::UNDEFINED   2147483750                       # Cumulative time (in ticks) in various power states (Tick)
system.cpu7.power_state.pwrStateResidencyTicks::UNDEFINED   2147483750                       # Cumulative time (in ticks) in various power states (Tick)
system.cpu8.power_state.pwrStateResidencyTicks::UNDEFINED   2147483750                       # Cumulative time (in ticks) in various power states (Tick)
system.cpu9.power_state.pwrStateResidencyTicks::UNDEFINED   2147483750                       # Cumulative time (in ticks) in various power states (Tick)
system.mem_ctrls0.power_state.pwrStateResidencyTicks::UNDEFINED   2147483750                       # Cumulative time (in ticks) in various power states (Tick)
system.mem_ctrls1.power_state.pwrStateResidencyTicks::UNDEFINED   2147483750                       # Cumulative time (in ticks) in various power states (Tick)
system.mem_ctrls10.power_state.pwrStateResidencyTicks::UNDEFINED   2147483750                       # Cumulative time (in ticks) in various power states (Tick)
system.mem_ctrls11.power_state.pwrStateResidencyTicks::UNDEFINED   2147483750                       # Cumulative time (in ticks) in various power states (Tick)
system.mem_ctrls12.power_state.pwrStateResidencyTicks::UNDEFINED   2147483750                       # Cumulative time (in ticks) in various power states (Tick)
system.mem_ctrls13.power_state.pwrStateResidencyTicks::UNDEFINED   2147483750                       # Cumulative time (in ticks) in various power states (Tick)
system.mem_ctrls14.power_state.pwrStateResidencyTicks::UNDEFINED   2147483750                       # Cumulative time (in ticks) in various power states (Tick)
system.mem_ctrls15.power_state.pwrStateResidencyTicks::UNDEFINED   2147483750                       # Cumulative time (in ticks) in various power states (Tick)
system.mem_ctrls16.power_state.pwrStateResidencyTicks::UNDEFINED   2147483750                       # Cumulative time (in ticks) in various power states (Tick)
system.mem_ctrls17.power_state.pwrStateResidencyTicks::UNDEFINED   2147483750                       # Cumulative time (in ticks) in various power states (Tick)
system.mem_ctrls18.power_state.pwrStateResidencyTicks::UNDEFINED   2147483750                       # Cumulative time (in ticks) in various power states (Tick)
system.mem_ctrls19.power_state.pwrStateResidencyTicks::UNDEFINED   2147483750                       # Cumulative time (in ticks) in various power states (Tick)
system.mem_ctrls2.power_state.pwrStateResidencyTicks::UNDEFINED   2147483750                       # Cumulative time (in ticks) in various power states (Tick)
system.mem_ctrls20.power_state.pwrStateResidencyTicks::UNDEFINED   2147483750                       # Cumulative time (in ticks) in various power states (Tick)
system.mem_ctrls21.power_state.pwrStateResidencyTicks::UNDEFINED   2147483750                       # Cumulative time (in ticks) in various power states (Tick)
system.mem_ctrls22.power_state.pwrStateResidencyTicks::UNDEFINED   2147483750                       # Cumulative time (in ticks) in various power states (Tick)
system.mem_ctrls23.power_state.pwrStateResidencyTicks::UNDEFINED   2147483750                       # Cumulative time (in ticks) in various power states (Tick)
system.mem_ctrls24.power_state.pwrStateResidencyTicks::UNDEFINED   2147483750                       # Cumulative time (in ticks) in various power states (Tick)
system.mem_ctrls25.power_state.pwrStateResidencyTicks::UNDEFINED   2147483750                       # Cumulative time (in ticks) in various power states (Tick)
system.mem_ctrls26.power_state.pwrStateResidencyTicks::UNDEFINED   2147483750                       # Cumulative time (in ticks) in various power states (Tick)
system.mem_ctrls27.power_state.pwrStateResidencyTicks::UNDEFINED   2147483750                       # Cumulative time (in ticks) in various power states (Tick)
system.mem_ctrls28.power_state.pwrStateResidencyTicks::UNDEFINED   2147483750                       # Cumulative time (in ticks) in various power states (Tick)
system.mem_ctrls29.power_state.pwrStateResidencyTicks::UNDEFINED   2147483750                       # Cumulative time (in ticks) in various power states (Tick)
system.mem_ctrls3.power_state.pwrStateResidencyTicks::UNDEFINED   2147483750                       # Cumulative time (in ticks) in various power states (Tick)
system.mem_ctrls30.power_state.pwrStateResidencyTicks::UNDEFINED   2147483750                       # Cumulative time (in ticks) in various power states (Tick)
system.mem_ctrls31.power_state.pwrStateResidencyTicks::UNDEFINED   2147483750                       # Cumulative time (in ticks) in various power states (Tick)
system.mem_ctrls32.power_state.pwrStateResidencyTicks::UNDEFINED   2147483750                       # Cumulative time (in ticks) in various power states (Tick)
system.mem_ctrls33.power_state.pwrStateResidencyTicks::UNDEFINED   2147483750                       # Cumulative time (in ticks) in various power states (Tick)
system.mem_ctrls34.power_state.pwrStateResidencyTicks::UNDEFINED   2147483750                       # Cumulative time (in ticks) in various power states (Tick)
system.mem_ctrls35.power_state.pwrStateResidencyTicks::UNDEFINED   2147483750                       # Cumulative time (in ticks) in various power states (Tick)
system.mem_ctrls36.power_state.pwrStateResidencyTicks::UNDEFINED   2147483750                       # Cumulative time (in ticks) in various power states (Tick)
system.mem_ctrls37.power_state.pwrStateResidencyTicks::UNDEFINED   2147483750                       # Cumulative time (in ticks) in various power states (Tick)
system.mem_ctrls38.power_state.pwrStateResidencyTicks::UNDEFINED   2147483750                       # Cumulative time (in ticks) in various power states (Tick)
system.mem_ctrls39.power_state.pwrStateResidencyTicks::UNDEFINED   2147483750                       # Cumulative time (in ticks) in various power states (Tick)
system.mem_ctrls4.power_state.pwrStateResidencyTicks::UNDEFINED   2147483750                       # Cumulative time (in ticks) in various power states (Tick)
system.mem_ctrls40.power_state.pwrStateResidencyTicks::UNDEFINED   2147483750                       # Cumulative time (in ticks) in various power states (Tick)
system.mem_ctrls41.power_state.pwrStateResidencyTicks::UNDEFINED   2147483750                       # Cumulative time (in ticks) in various power states (Tick)
system.mem_ctrls42.power_state.pwrStateResidencyTicks::UNDEFINED   2147483750                       # Cumulative time (in ticks) in various power states (Tick)
system.mem_ctrls43.power_state.pwrStateResidencyTicks::UNDEFINED   2147483750                       # Cumulative time (in ticks) in various power states (Tick)
system.mem_ctrls44.power_state.pwrStateResidencyTicks::UNDEFINED   2147483750                       # Cumulative time (in ticks) in various power states (Tick)
system.mem_ctrls45.power_state.pwrStateResidencyTicks::UNDEFINED   2147483750                       # Cumulative time (in ticks) in various power states (Tick)
system.mem_ctrls46.power_state.pwrStateResidencyTicks::UNDEFINED   2147483750                       # Cumulative time (in ticks) in various power states (Tick)
system.mem_ctrls47.power_state.pwrStateResidencyTicks::UNDEFINED   2147483750                       # Cumulative time (in ticks) in various power states (Tick)
system.mem_ctrls48.power_state.pwrStateResidencyTicks::UNDEFINED   2147483750                       # Cumulative time (in ticks) in various power states (Tick)
system.mem_ctrls49.power_state.pwrStateResidencyTicks::UNDEFINED   2147483750                       # Cumulative time (in ticks) in various power states (Tick)
system.mem_ctrls5.power_state.pwrStateResidencyTicks::UNDEFINED   2147483750                       # Cumulative time (in ticks) in various power states (Tick)
system.mem_ctrls50.power_state.pwrStateResidencyTicks::UNDEFINED   2147483750                       # Cumulative time (in ticks) in various power states (Tick)
system.mem_ctrls51.power_state.pwrStateResidencyTicks::UNDEFINED   2147483750                       # Cumulative time (in ticks) in various power states (Tick)
system.mem_ctrls52.power_state.pwrStateResidencyTicks::UNDEFINED   2147483750                       # Cumulative time (in ticks) in various power states (Tick)
system.mem_ctrls53.power_state.pwrStateResidencyTicks::UNDEFINED   2147483750                       # Cumulative time (in ticks) in various power states (Tick)
system.mem_ctrls54.power_state.pwrStateResidencyTicks::UNDEFINED   2147483750                       # Cumulative time (in ticks) in various power states (Tick)
system.mem_ctrls55.power_state.pwrStateResidencyTicks::UNDEFINED   2147483750                       # Cumulative time (in ticks) in various power states (Tick)
system.mem_ctrls56.power_state.pwrStateResidencyTicks::UNDEFINED   2147483750                       # Cumulative time (in ticks) in various power states (Tick)
system.mem_ctrls57.power_state.pwrStateResidencyTicks::UNDEFINED   2147483750                       # Cumulative time (in ticks) in various power states (Tick)
system.mem_ctrls58.power_state.pwrStateResidencyTicks::UNDEFINED   2147483750                       # Cumulative time (in ticks) in various power states (Tick)
system.mem_ctrls59.power_state.pwrStateResidencyTicks::UNDEFINED   2147483750                       # Cumulative time (in ticks) in various power states (Tick)
system.mem_ctrls6.power_state.pwrStateResidencyTicks::UNDEFINED   2147483750                       # Cumulative time (in ticks) in various power states (Tick)
system.mem_ctrls60.power_state.pwrStateResidencyTicks::UNDEFINED   2147483750                       # Cumulative time (in ticks) in various power states (Tick)
system.mem_ctrls61.power_state.pwrStateResidencyTicks::UNDEFINED   2147483750                       # Cumulative time (in ticks) in various power states (Tick)
system.mem_ctrls62.power_state.pwrStateResidencyTicks::UNDEFINED   2147483750                       # Cumulative time (in ticks) in various power states (Tick)
system.mem_ctrls63.power_state.pwrStateResidencyTicks::UNDEFINED   2147483750                       # Cumulative time (in ticks) in various power states (Tick)
system.mem_ctrls7.power_state.pwrStateResidencyTicks::UNDEFINED   2147483750                       # Cumulative time (in ticks) in various power states (Tick)
system.mem_ctrls8.power_state.pwrStateResidencyTicks::UNDEFINED   2147483750                       # Cumulative time (in ticks) in various power states (Tick)
system.mem_ctrls9.power_state.pwrStateResidencyTicks::UNDEFINED   2147483750                       # Cumulative time (in ticks) in various power states (Tick)
system.ruby.m_outstandReqHistSeqr::bucket_size            1                       (Unspecified)
system.ruby.m_outstandReqHistSeqr::max_bucket            9                       (Unspecified)
system.ruby.m_outstandReqHistSeqr::samples     82385201                       (Unspecified)
system.ruby.m_outstandReqHistSeqr::mean             1                       (Unspecified)
system.ruby.m_outstandReqHistSeqr::gmean            1                       (Unspecified)
system.ruby.m_outstandReqHistSeqr        |           0      0.00%      0.00% |    82385201    100.00%    100.00% |           0      0.00%    100.00% |           0      0.00%    100.00% |           0      0.00%    100.00% |           0      0.00%    100.00% |           0      0.00%    100.00% |           0      0.00%    100.00% |           0      0.00%    100.00% |           0      0.00%    100.00% (Unspecified)
system.ruby.m_outstandReqHistSeqr::total     82385201                       (Unspecified)
system.ruby.m_latencyHistSeqr::bucket_size            1                       (Unspecified)
system.ruby.m_latencyHistSeqr::max_bucket            9                       (Unspecified)
system.ruby.m_latencyHistSeqr::samples       82385192                       (Unspecified)
system.ruby.m_latencyHistSeqr::mean                 1                       (Unspecified)
system.ruby.m_latencyHistSeqr::gmean                1                       (Unspecified)
system.ruby.m_latencyHistSeqr            |           0      0.00%      0.00% |    82385192    100.00%    100.00% |           0      0.00%    100.00% |           0      0.00%    100.00% |           0      0.00%    100.00% |           0      0.00%    100.00% |           0      0.00%    100.00% |           0      0.00%    100.00% |           0      0.00%    100.00% |           0      0.00%    100.00% (Unspecified)
system.ruby.m_latencyHistSeqr::total         82385192                       (Unspecified)
system.ruby.m_hitLatencyHistSeqr::bucket_size            1                       (Unspecified)
system.ruby.m_hitLatencyHistSeqr::max_bucket            9                       (Unspecified)
system.ruby.m_hitLatencyHistSeqr::samples     82385192                       (Unspecified)
system.ruby.m_hitLatencyHistSeqr::mean              1                       (Unspecified)
system.ruby.m_hitLatencyHistSeqr::gmean             1                       (Unspecified)
system.ruby.m_hitLatencyHistSeqr         |           0      0.00%      0.00% |    82385192    100.00%    100.00% |           0      0.00%    100.00% |           0      0.00%    100.00% |           0      0.00%    100.00% |           0      0.00%    100.00% |           0      0.00%    100.00% |           0      0.00%    100.00% |           0      0.00%    100.00% |           0      0.00%    100.00% (Unspecified)
system.ruby.m_hitLatencyHistSeqr::total      82385192                       (Unspecified)
system.ruby.Directory_Controller.Receive_Request |      428316      1.56%      1.56% |      429183      1.56%      3.12% |      428842      1.56%      4.68% |      429534      1.56%      6.25% |      429005      1.56%      7.81% |      429147      1.56%      9.37% |      427347      1.56%     10.93% |      429443      1.56%     12.49% |      429273      1.56%     14.06% |      429102      1.56%     15.62% |      429351      1.56%     17.18% |      429799      1.57%     18.75% |      429279      1.56%     20.31% |      428066      1.56%     21.87% |      428657      1.56%     23.43% |      429461      1.56%     25.00% |      427971      1.56%     26.56% |      429798      1.57%     28.12% |      429977      1.57%     29.69% |      429268      1.56%     31.25% |      429528      1.56%     32.82% |      428327      1.56%     34.38% |      428813      1.56%     35.94% |      428863      1.56%     37.50% |      428269      1.56%     39.06% |      427811      1.56%     40.62% |      430020      1.57%     42.18% |      427932      1.56%     43.74% |      429701      1.56%     45.31% |      428453      1.56%     46.87% |      430556      1.57%     48.43% |      428134      1.56%     49.99% |      428826      1.56%     51.56% |      429116      1.56%     53.12% |      429601      1.56%     54.68% |      430240      1.57%     56.25% |      429466      1.56%     57.81% |      429843      1.57%     59.38% |      428318      1.56%     60.94% |      429734      1.57%     62.50% |      428950      1.56%     64.07% |      428178      1.56%     65.63% |      429963      1.57%     67.19% |      429209      1.56%     68.76% |      429375      1.56%     70.32% |      429486      1.56%     71.88% |      428186      1.56%     73.44% |      429638      1.56%     75.01% |      428309      1.56%     76.57% |      430011      1.57%     78.13% |      429481      1.56%     79.70% |      428585      1.56%     81.26% |      428703      1.56%     82.82% |      429324      1.56%     84.38% |      428970      1.56%     85.95% |      428140      1.56%     87.50% |      429007      1.56%     89.07% |      427821      1.56%     90.63% |      428424      1.56%     92.19% |      429178      1.56%     93.75% |      429085      1.56%     95.31% |      429219      1.56%     96.87% |      429137      1.56%     98.44% |      429109      1.56%    100.00% (Unspecified)
system.ruby.Directory_Controller.Receive_Request::total     27457858                       (Unspecified)
system.ruby.Directory_Controller.Receive_Forward |      429236      1.56%      1.56% |      428677      1.56%      3.12% |      429489      1.56%      4.69% |      428899      1.56%      6.25% |      429799      1.57%      7.81% |      428147      1.56%      9.37% |      428686      1.56%     10.94% |      428748      1.56%     12.50% |      430037      1.57%     14.06% |      428616      1.56%     15.62% |      429777      1.57%     17.19% |      428591      1.56%     18.75% |      427714      1.56%     20.31% |      430747      1.57%     21.87% |      428912      1.56%     23.44% |      429747      1.56%     25.00% |      429748      1.56%     26.57% |      429303      1.56%     28.13% |      428699      1.56%     29.69% |      429550      1.56%     31.25% |      429303      1.56%     32.82% |      429247      1.56%     34.38% |      427466      1.56%     35.94% |      429096      1.56%     37.50% |      429750      1.56%     39.07% |      429131      1.56%     40.63% |      428837      1.56%     42.19% |      428025      1.56%     43.75% |      427824      1.56%     45.31% |      429343      1.56%     46.87% |      429270      1.56%     48.43% |      429251      1.56%     50.00% |      428763      1.56%     51.56% |      429012      1.56%     53.12% |      429437      1.56%     54.68% |      428415      1.56%     56.24% |      428791      1.56%     57.80% |      430481      1.57%     59.37% |      430502      1.57%     60.94% |      429318      1.56%     62.50% |      429777      1.57%     64.07% |      428815      1.56%     65.63% |      429549      1.56%     67.19% |      428347      1.56%     68.75% |      428669      1.56%     70.31% |      429865      1.57%     71.88% |      428902      1.56%     73.44% |      428444      1.56%     75.00% |      428483      1.56%     76.56% |      429529      1.56%     78.13% |      428026      1.56%     79.68% |      429928      1.57%     81.25% |      428279      1.56%     82.81% |      429316      1.56%     84.37% |      428922      1.56%     85.94% |      428435      1.56%     87.50% |      429113      1.56%     89.06% |      428139      1.56%     90.62% |      430160      1.57%     92.18% |      428582      1.56%     93.74% |      429269      1.56%     95.31% |      431157      1.57%     96.88% |      429196      1.56%     98.44% |      428356      1.56%    100.00% (Unspecified)
system.ruby.Directory_Controller.Receive_Forward::total     27461642                       (Unspecified)
system.ruby.Directory_Controller.Receive_Response |      166980      1.56%      1.56% |      167582      1.56%      3.12% |      167167      1.56%      4.68% |      167013      1.56%      6.24% |      167214      1.56%      7.80% |      167094      1.56%      9.36% |      166563      1.55%     10.91% |      167244      1.56%     12.48% |      166973      1.56%     14.03% |      167638      1.56%     15.60% |      166998      1.56%     17.16% |      167493      1.56%     18.72% |      166684      1.56%     20.27% |      167686      1.56%     21.84% |      167270      1.56%     23.40% |      167479      1.56%     24.96% |      167472      1.56%     26.53% |      167475      1.56%     28.09% |      167868      1.57%     29.66% |      167385      1.56%     31.22% |      167595      1.56%     32.78% |      167191      1.56%     34.34% |      167996      1.57%     35.91% |      167351      1.56%     37.47% |      167565      1.56%     39.03% |      167472      1.56%     40.60% |      167746      1.57%     42.16% |      166868      1.56%     43.72% |      166767      1.56%     45.28% |      167164      1.56%     46.84% |      167135      1.56%     48.40% |      167991      1.57%     49.96% |      168125      1.57%     51.53% |      167297      1.56%     53.09% |      167278      1.56%     54.66% |      167211      1.56%     56.22% |      167068      1.56%     57.77% |      167182      1.56%     59.33% |      167553      1.56%     60.90% |      167758      1.57%     62.46% |      167952      1.57%     64.03% |      167377      1.56%     65.59% |      167721      1.57%     67.16% |      167625      1.56%     68.72% |      167459      1.56%     70.29% |      167802      1.57%     71.85% |      167458      1.56%     73.41% |      167345      1.56%     74.98% |      167516      1.56%     76.54% |      167282      1.56%     78.10% |      167158      1.56%     79.66% |      168179      1.57%     81.23% |      167202      1.56%     82.79% |      167284      1.56%     84.35% |      167868      1.57%     85.92% |      167763      1.57%     87.48% |      167192      1.56%     89.04% |      167908      1.57%     90.61% |      168216      1.57%     92.18% |      167802      1.57%     93.75% |      167416      1.56%     95.31% |      167585      1.56%     96.87% |      167488      1.56%     98.43% |      167780      1.57%    100.00% (Unspecified)
system.ruby.Directory_Controller.Receive_Response::total     10715969                       (Unspecified)
system.ruby.Directory_Controller.I.Receive_Request |      428316      1.56%      1.56% |      429183      1.56%      3.12% |      428842      1.56%      4.68% |      429534      1.56%      6.25% |      429005      1.56%      7.81% |      429147      1.56%      9.37% |      427347      1.56%     10.93% |      429443      1.56%     12.49% |      429273      1.56%     14.06% |      429102      1.56%     15.62% |      429351      1.56%     17.18% |      429799      1.57%     18.75% |      429279      1.56%     20.31% |      428066      1.56%     21.87% |      428657      1.56%     23.43% |      429461      1.56%     25.00% |      427971      1.56%     26.56% |      429798      1.57%     28.12% |      429977      1.57%     29.69% |      429268      1.56%     31.25% |      429528      1.56%     32.82% |      428327      1.56%     34.38% |      428813      1.56%     35.94% |      428863      1.56%     37.50% |      428269      1.56%     39.06% |      427811      1.56%     40.62% |      430020      1.57%     42.18% |      427932      1.56%     43.74% |      429701      1.56%     45.31% |      428453      1.56%     46.87% |      430556      1.57%     48.43% |      428134      1.56%     49.99% |      428826      1.56%     51.56% |      429116      1.56%     53.12% |      429601      1.56%     54.68% |      430240      1.57%     56.25% |      429466      1.56%     57.81% |      429843      1.57%     59.38% |      428318      1.56%     60.94% |      429734      1.57%     62.50% |      428950      1.56%     64.07% |      428178      1.56%     65.63% |      429963      1.57%     67.19% |      429209      1.56%     68.76% |      429375      1.56%     70.32% |      429486      1.56%     71.88% |      428186      1.56%     73.44% |      429638      1.56%     75.01% |      428309      1.56%     76.57% |      430011      1.57%     78.13% |      429481      1.56%     79.70% |      428585      1.56%     81.26% |      428703      1.56%     82.82% |      429324      1.56%     84.38% |      428970      1.56%     85.95% |      428140      1.56%     87.50% |      429007      1.56%     89.07% |      427821      1.56%     90.63% |      428424      1.56%     92.19% |      429178      1.56%     93.75% |      429085      1.56%     95.31% |      429219      1.56%     96.87% |      429137      1.56%     98.44% |      429109      1.56%    100.00% (Unspecified)
system.ruby.Directory_Controller.I.Receive_Request::total     27457858                       (Unspecified)
system.ruby.Directory_Controller.I.Receive_Forward |      429236      1.56%      1.56% |      428677      1.56%      3.12% |      429489      1.56%      4.69% |      428899      1.56%      6.25% |      429799      1.57%      7.81% |      428147      1.56%      9.37% |      428686      1.56%     10.94% |      428748      1.56%     12.50% |      430037      1.57%     14.06% |      428616      1.56%     15.62% |      429777      1.57%     17.19% |      428591      1.56%     18.75% |      427714      1.56%     20.31% |      430747      1.57%     21.87% |      428912      1.56%     23.44% |      429747      1.56%     25.00% |      429748      1.56%     26.57% |      429303      1.56%     28.13% |      428699      1.56%     29.69% |      429550      1.56%     31.25% |      429303      1.56%     32.82% |      429247      1.56%     34.38% |      427466      1.56%     35.94% |      429096      1.56%     37.50% |      429750      1.56%     39.07% |      429131      1.56%     40.63% |      428837      1.56%     42.19% |      428025      1.56%     43.75% |      427824      1.56%     45.31% |      429343      1.56%     46.87% |      429270      1.56%     48.43% |      429251      1.56%     50.00% |      428763      1.56%     51.56% |      429012      1.56%     53.12% |      429437      1.56%     54.68% |      428415      1.56%     56.24% |      428791      1.56%     57.80% |      430481      1.57%     59.37% |      430502      1.57%     60.94% |      429318      1.56%     62.50% |      429777      1.57%     64.07% |      428815      1.56%     65.63% |      429549      1.56%     67.19% |      428347      1.56%     68.75% |      428669      1.56%     70.31% |      429865      1.57%     71.88% |      428902      1.56%     73.44% |      428444      1.56%     75.00% |      428483      1.56%     76.56% |      429529      1.56%     78.13% |      428026      1.56%     79.68% |      429928      1.57%     81.25% |      428279      1.56%     82.81% |      429316      1.56%     84.37% |      428922      1.56%     85.94% |      428435      1.56%     87.50% |      429113      1.56%     89.06% |      428139      1.56%     90.62% |      430160      1.57%     92.18% |      428582      1.56%     93.74% |      429269      1.56%     95.31% |      431157      1.57%     96.88% |      429196      1.56%     98.44% |      428356      1.56%    100.00% (Unspecified)
system.ruby.Directory_Controller.I.Receive_Forward::total     27461642                       (Unspecified)
system.ruby.Directory_Controller.I.Receive_Response |      166980      1.56%      1.56% |      167582      1.56%      3.12% |      167167      1.56%      4.68% |      167013      1.56%      6.24% |      167214      1.56%      7.80% |      167094      1.56%      9.36% |      166563      1.55%     10.91% |      167244      1.56%     12.48% |      166973      1.56%     14.03% |      167638      1.56%     15.60% |      166998      1.56%     17.16% |      167493      1.56%     18.72% |      166684      1.56%     20.27% |      167686      1.56%     21.84% |      167270      1.56%     23.40% |      167479      1.56%     24.96% |      167472      1.56%     26.53% |      167475      1.56%     28.09% |      167868      1.57%     29.66% |      167385      1.56%     31.22% |      167595      1.56%     32.78% |      167191      1.56%     34.34% |      167996      1.57%     35.91% |      167351      1.56%     37.47% |      167565      1.56%     39.03% |      167472      1.56%     40.60% |      167746      1.57%     42.16% |      166868      1.56%     43.72% |      166767      1.56%     45.28% |      167164      1.56%     46.84% |      167135      1.56%     48.40% |      167991      1.57%     49.96% |      168125      1.57%     51.53% |      167297      1.56%     53.09% |      167278      1.56%     54.66% |      167211      1.56%     56.22% |      167068      1.56%     57.77% |      167182      1.56%     59.33% |      167553      1.56%     60.90% |      167758      1.57%     62.46% |      167952      1.57%     64.03% |      167377      1.56%     65.59% |      167721      1.57%     67.16% |      167625      1.56%     68.72% |      167459      1.56%     70.29% |      167802      1.57%     71.85% |      167458      1.56%     73.41% |      167345      1.56%     74.98% |      167516      1.56%     76.54% |      167282      1.56%     78.10% |      167158      1.56%     79.66% |      168179      1.57%     81.23% |      167202      1.56%     82.79% |      167284      1.56%     84.35% |      167868      1.57%     85.92% |      167763      1.57%     87.48% |      167192      1.56%     89.04% |      167908      1.57%     90.61% |      168216      1.57%     92.18% |      167802      1.57%     93.75% |      167416      1.56%     95.31% |      167585      1.56%     96.87% |      167488      1.56%     98.43% |      167780      1.57%    100.00% (Unspecified)
system.ruby.Directory_Controller.I.Receive_Response::total     10715969                       (Unspecified)
system.ruby.L1Cache_Controller.Request   |      428537      1.56%      1.56% |      429380      1.56%      3.12% |      428729      1.56%      4.69% |      429321      1.56%      6.25% |      428171      1.56%      7.81% |      430511      1.57%      9.38% |      429155      1.56%     10.94% |      429400      1.56%     12.50% |      429157      1.56%     14.07% |      429097      1.56%     15.63% |      429197      1.56%     17.19% |      428897      1.56%     18.75% |      429140      1.56%     20.32% |      428218      1.56%     21.88% |      429776      1.57%     23.44% |      429679      1.56%     25.01% |      428557      1.56%     26.57% |      428140      1.56%     28.13% |      429384      1.56%     29.69% |      429277      1.56%     31.25% |      429604      1.56%     32.82% |      429226      1.56%     34.38% |      427354      1.56%     35.94% |      429281      1.56%     37.50% |      429733      1.57%     39.07% |      428787      1.56%     40.63% |      428490      1.56%     42.19% |      428750      1.56%     43.75% |      429414      1.56%     45.31% |      429095      1.56%     46.88% |      429251      1.56%     48.44% |      429617      1.56%     50.00% |      427974      1.56%     51.56% |      429072      1.56%     53.13% |      427298      1.56%     54.68% |      428350      1.56%     56.24% |      428940      1.56%     57.80% |      428345      1.56%     59.36% |      428297      1.56%     60.92% |      428260      1.56%     62.48% |      428800      1.56%     64.05% |      430125      1.57%     65.61% |      430022      1.57%     67.18% |      428800      1.56%     68.74% |      428161      1.56%     70.30% |      429158      1.56%     71.86% |      428754      1.56%     73.42% |      429167      1.56%     74.99% |      430339      1.57%     76.55% |      428510      1.56%     78.11% |      428443      1.56%     79.67% |      429025      1.56%     81.24% |      429341      1.56%     82.80% |      429356      1.56%     84.36% |      429242      1.56%     85.93% |      429184      1.56%     87.49% |      429488      1.56%     89.06% |      429025      1.56%     90.62% |      429600      1.56%     92.18% |      430440      1.57%     93.75% |      429207      1.56%     95.31% |      429385      1.56%     96.88% |      428745      1.56%     98.44% |      428815      1.56%    100.00% (Unspecified)
system.ruby.L1Cache_Controller.Request::total     27457993                       (Unspecified)
system.ruby.L1Cache_Controller.Forward   |      429119      1.56%      1.56% |      429285      1.56%      3.13% |      429436      1.56%      4.69% |      429968      1.57%      6.26% |      429038      1.56%      7.82% |      429654      1.56%      9.38% |      429366      1.56%     10.95% |      428858      1.56%     12.51% |      428837      1.56%     14.07% |      428274      1.56%     15.63% |      428112      1.56%     17.19% |      429504      1.56%     18.75% |      428810      1.56%     20.31% |      428823      1.56%     21.87% |      429749      1.56%     23.44% |      428185      1.56%     25.00% |      429669      1.56%     26.56% |      429426      1.56%     28.13% |      428165      1.56%     29.69% |      429956      1.57%     31.25% |      429452      1.56%     32.82% |      429526      1.56%     34.38% |      428792      1.56%     35.94% |      429244      1.56%     37.50% |      429697      1.56%     39.07% |      429487      1.56%     40.63% |      429486      1.56%     42.20% |      429947      1.57%     43.76% |      429480      1.56%     45.33% |      428741      1.56%     46.89% |      428330      1.56%     48.45% |      427610      1.56%     50.00% |      429005      1.56%     51.57% |      428878      1.56%     53.13% |      428700      1.56%     54.69% |      429137      1.56%     56.25% |      429178      1.56%     57.81% |      429261      1.56%     59.38% |      429853      1.57%     60.94% |      428840      1.56%     62.50% |      428157      1.56%     64.06% |      429680      1.56%     65.63% |      429128      1.56%     67.19% |      428700      1.56%     68.75% |      429622      1.56%     70.32% |      429341      1.56%     71.88% |      429059      1.56%     73.44% |      429462      1.56%     75.01% |      429491      1.56%     76.57% |      428745      1.56%     78.13% |      429329      1.56%     79.69% |      428538      1.56%     81.26% |      427615      1.56%     82.81% |      428458      1.56%     84.37% |      429194      1.56%     85.94% |      429186      1.56%     87.50% |      429559      1.56%     89.06% |      428965      1.56%     90.62% |      428170      1.56%     92.18% |      429041      1.56%     93.75% |      427939      1.56%     95.30% |      429864      1.57%     96.87% |      429738      1.56%     98.43% |      429940      1.57%    100.00% (Unspecified)
system.ruby.L1Cache_Controller.Forward::total     27461799                       (Unspecified)
system.ruby.L1Cache_Controller.Response  |      429186      1.56%      1.56% |      427778      1.56%      3.12% |      428935      1.56%      4.68% |      429340      1.56%      6.25% |      429168      1.56%      7.81% |      429808      1.56%      9.37% |      428605      1.56%     10.93% |      429501      1.56%     12.50% |      428254      1.56%     14.06% |      429340      1.56%     15.62% |      429096      1.56%     17.18% |      428621      1.56%     18.74% |      428150      1.56%     20.30% |      429415      1.56%     21.86% |      428647      1.56%     23.43% |      428560      1.56%     24.99% |      428400      1.56%     26.55% |      430380      1.57%     28.11% |      428029      1.56%     29.67% |      428791      1.56%     31.23% |      430121      1.57%     32.80% |      429089      1.56%     34.36% |      429281      1.56%     35.92% |      429381      1.56%     37.49% |      429585      1.56%     39.05% |      428866      1.56%     40.61% |      429356      1.56%     42.18% |      428308      1.56%     43.73% |      428741      1.56%     45.30% |      428748      1.56%     46.86% |      429292      1.56%     48.42% |      429282      1.56%     49.98% |      429564      1.56%     51.55% |      428313      1.56%     53.11% |      429967      1.57%     54.67% |      429573      1.56%     56.24% |      428459      1.56%     57.80% |      430043      1.57%     59.36% |      428843      1.56%     60.92% |      429288      1.56%     62.49% |      429171      1.56%     64.05% |      428877      1.56%     65.61% |      428978      1.56%     67.17% |      429127      1.56%     68.73% |      428776      1.56%     70.30% |      429815      1.56%     71.86% |      429539      1.56%     73.42% |      428741      1.56%     74.99% |      429282      1.56%     76.55% |      429751      1.56%     78.11% |      430487      1.57%     79.68% |      429945      1.57%     81.25% |      429946      1.57%     82.81% |      428827      1.56%     84.37% |      428928      1.56%     85.93% |      429320      1.56%     87.50% |      427913      1.56%     89.06% |      429956      1.57%     90.62% |      429429      1.56%     92.18% |      430281      1.57%     93.75% |      429423      1.56%     95.31% |      429266      1.56%     96.88% |      428781      1.56%     98.44% |      428737      1.56%    100.00% (Unspecified)
system.ruby.L1Cache_Controller.Response::total     27465400                       (Unspecified)
system.ruby.L1Cache_Controller.I.Request |      428537      1.56%      1.56% |      429380      1.56%      3.12% |      428729      1.56%      4.69% |      429321      1.56%      6.25% |      428171      1.56%      7.81% |      430511      1.57%      9.38% |      429155      1.56%     10.94% |      429400      1.56%     12.50% |      429157      1.56%     14.07% |      429097      1.56%     15.63% |      429197      1.56%     17.19% |      428897      1.56%     18.75% |      429140      1.56%     20.32% |      428218      1.56%     21.88% |      429776      1.57%     23.44% |      429679      1.56%     25.01% |      428557      1.56%     26.57% |      428140      1.56%     28.13% |      429384      1.56%     29.69% |      429277      1.56%     31.25% |      429604      1.56%     32.82% |      429226      1.56%     34.38% |      427354      1.56%     35.94% |      429281      1.56%     37.50% |      429733      1.57%     39.07% |      428787      1.56%     40.63% |      428490      1.56%     42.19% |      428750      1.56%     43.75% |      429414      1.56%     45.31% |      429095      1.56%     46.88% |      429251      1.56%     48.44% |      429617      1.56%     50.00% |      427974      1.56%     51.56% |      429072      1.56%     53.13% |      427298      1.56%     54.68% |      428350      1.56%     56.24% |      428940      1.56%     57.80% |      428345      1.56%     59.36% |      428297      1.56%     60.92% |      428260      1.56%     62.48% |      428800      1.56%     64.05% |      430125      1.57%     65.61% |      430022      1.57%     67.18% |      428800      1.56%     68.74% |      428161      1.56%     70.30% |      429158      1.56%     71.86% |      428754      1.56%     73.42% |      429167      1.56%     74.99% |      430339      1.57%     76.55% |      428510      1.56%     78.11% |      428443      1.56%     79.67% |      429025      1.56%     81.24% |      429341      1.56%     82.80% |      429356      1.56%     84.36% |      429242      1.56%     85.93% |      429184      1.56%     87.49% |      429488      1.56%     89.06% |      429025      1.56%     90.62% |      429600      1.56%     92.18% |      430440      1.57%     93.75% |      429207      1.56%     95.31% |      429385      1.56%     96.88% |      428745      1.56%     98.44% |      428815      1.56%    100.00% (Unspecified)
system.ruby.L1Cache_Controller.I.Request::total     27457993                       (Unspecified)
system.ruby.L1Cache_Controller.I.Forward |      429119      1.56%      1.56% |      429285      1.56%      3.13% |      429436      1.56%      4.69% |      429968      1.57%      6.26% |      429038      1.56%      7.82% |      429654      1.56%      9.38% |      429366      1.56%     10.95% |      428858      1.56%     12.51% |      428837      1.56%     14.07% |      428274      1.56%     15.63% |      428112      1.56%     17.19% |      429504      1.56%     18.75% |      428810      1.56%     20.31% |      428823      1.56%     21.87% |      429749      1.56%     23.44% |      428185      1.56%     25.00% |      429669      1.56%     26.56% |      429426      1.56%     28.13% |      428165      1.56%     29.69% |      429956      1.57%     31.25% |      429452      1.56%     32.82% |      429526      1.56%     34.38% |      428792      1.56%     35.94% |      429244      1.56%     37.50% |      429697      1.56%     39.07% |      429487      1.56%     40.63% |      429486      1.56%     42.20% |      429947      1.57%     43.76% |      429480      1.56%     45.33% |      428741      1.56%     46.89% |      428330      1.56%     48.45% |      427610      1.56%     50.00% |      429005      1.56%     51.57% |      428878      1.56%     53.13% |      428700      1.56%     54.69% |      429137      1.56%     56.25% |      429178      1.56%     57.81% |      429261      1.56%     59.38% |      429853      1.57%     60.94% |      428840      1.56%     62.50% |      428157      1.56%     64.06% |      429680      1.56%     65.63% |      429128      1.56%     67.19% |      428700      1.56%     68.75% |      429622      1.56%     70.32% |      429341      1.56%     71.88% |      429059      1.56%     73.44% |      429462      1.56%     75.01% |      429491      1.56%     76.57% |      428745      1.56%     78.13% |      429329      1.56%     79.69% |      428538      1.56%     81.26% |      427615      1.56%     82.81% |      428458      1.56%     84.37% |      429194      1.56%     85.94% |      429186      1.56%     87.50% |      429559      1.56%     89.06% |      428965      1.56%     90.62% |      428170      1.56%     92.18% |      429041      1.56%     93.75% |      427939      1.56%     95.30% |      429864      1.57%     96.87% |      429738      1.56%     98.43% |      429940      1.57%    100.00% (Unspecified)
system.ruby.L1Cache_Controller.I.Forward::total     27461799                       (Unspecified)
system.ruby.L1Cache_Controller.I.Response |      429186      1.56%      1.56% |      427778      1.56%      3.12% |      428935      1.56%      4.68% |      429340      1.56%      6.25% |      429168      1.56%      7.81% |      429808      1.56%      9.37% |      428605      1.56%     10.93% |      429501      1.56%     12.50% |      428254      1.56%     14.06% |      429340      1.56%     15.62% |      429096      1.56%     17.18% |      428621      1.56%     18.74% |      428150      1.56%     20.30% |      429415      1.56%     21.86% |      428647      1.56%     23.43% |      428560      1.56%     24.99% |      428400      1.56%     26.55% |      430380      1.57%     28.11% |      428029      1.56%     29.67% |      428791      1.56%     31.23% |      430121      1.57%     32.80% |      429089      1.56%     34.36% |      429281      1.56%     35.92% |      429381      1.56%     37.49% |      429585      1.56%     39.05% |      428866      1.56%     40.61% |      429356      1.56%     42.18% |      428308      1.56%     43.73% |      428741      1.56%     45.30% |      428748      1.56%     46.86% |      429292      1.56%     48.42% |      429282      1.56%     49.98% |      429564      1.56%     51.55% |      428313      1.56%     53.11% |      429967      1.57%     54.67% |      429573      1.56%     56.24% |      428459      1.56%     57.80% |      430043      1.57%     59.36% |      428843      1.56%     60.92% |      429288      1.56%     62.49% |      429171      1.56%     64.05% |      428877      1.56%     65.61% |      428978      1.56%     67.17% |      429127      1.56%     68.73% |      428776      1.56%     70.30% |      429815      1.56%     71.86% |      429539      1.56%     73.42% |      428741      1.56%     74.99% |      429282      1.56%     76.55% |      429751      1.56%     78.11% |      430487      1.57%     79.68% |      429945      1.57%     81.25% |      429946      1.57%     82.81% |      428827      1.56%     84.37% |      428928      1.56%     85.93% |      429320      1.56%     87.50% |      427913      1.56%     89.06% |      429956      1.57%     90.62% |      429429      1.56%     92.18% |      430281      1.57%     93.75% |      429423      1.56%     95.31% |      429266      1.56%     96.88% |      428781      1.56%     98.44% |      428737      1.56%    100.00% (Unspecified)
system.ruby.L1Cache_Controller.I.Response::total     27465400                       (Unspecified)
system.ruby.RequestType.LD.latency_hist_seqr::bucket_size            1                       (Unspecified)
system.ruby.RequestType.LD.latency_hist_seqr::max_bucket            9                       (Unspecified)
system.ruby.RequestType.LD.latency_hist_seqr::samples     27457993                       (Unspecified)
system.ruby.RequestType.LD.latency_hist_seqr::mean            1                       (Unspecified)
system.ruby.RequestType.LD.latency_hist_seqr::gmean            1                       (Unspecified)
system.ruby.RequestType.LD.latency_hist_seqr |           0      0.00%      0.00% |    27457993    100.00%    100.00% |           0      0.00%    100.00% |           0      0.00%    100.00% |           0      0.00%    100.00% |           0      0.00%    100.00% |           0      0.00%    100.00% |           0      0.00%    100.00% |           0      0.00%    100.00% |           0      0.00%    100.00% (Unspecified)
system.ruby.RequestType.LD.latency_hist_seqr::total     27457993                       (Unspecified)
system.ruby.RequestType.LD.hit_latency_hist_seqr::bucket_size            1                       (Unspecified)
system.ruby.RequestType.LD.hit_latency_hist_seqr::max_bucket            9                       (Unspecified)
system.ruby.RequestType.LD.hit_latency_hist_seqr::samples     27457993                       (Unspecified)
system.ruby.RequestType.LD.hit_latency_hist_seqr::mean            1                       (Unspecified)
system.ruby.RequestType.LD.hit_latency_hist_seqr::gmean            1                       (Unspecified)
system.ruby.RequestType.LD.hit_latency_hist_seqr |           0      0.00%      0.00% |    27457993    100.00%    100.00% |           0      0.00%    100.00% |           0      0.00%    100.00% |           0      0.00%    100.00% |           0      0.00%    100.00% |           0      0.00%    100.00% |           0      0.00%    100.00% |           0      0.00%    100.00% |           0      0.00%    100.00% (Unspecified)
system.ruby.RequestType.LD.hit_latency_hist_seqr::total     27457993                       (Unspecified)
system.ruby.RequestType.ST.latency_hist_seqr::bucket_size            1                       (Unspecified)
system.ruby.RequestType.ST.latency_hist_seqr::max_bucket            9                       (Unspecified)
system.ruby.RequestType.ST.latency_hist_seqr::samples     27465400                       (Unspecified)
system.ruby.RequestType.ST.latency_hist_seqr::mean            1                       (Unspecified)
system.ruby.RequestType.ST.latency_hist_seqr::gmean            1                       (Unspecified)
system.ruby.RequestType.ST.latency_hist_seqr |           0      0.00%      0.00% |    27465400    100.00%    100.00% |           0      0.00%    100.00% |           0      0.00%    100.00% |           0      0.00%    100.00% |           0      0.00%    100.00% |           0      0.00%    100.00% |           0      0.00%    100.00% |           0      0.00%    100.00% |           0      0.00%    100.00% (Unspecified)
system.ruby.RequestType.ST.latency_hist_seqr::total     27465400                       (Unspecified)
system.ruby.RequestType.ST.hit_latency_hist_seqr::bucket_size            1                       (Unspecified)
system.ruby.RequestType.ST.hit_latency_hist_seqr::max_bucket            9                       (Unspecified)
system.ruby.RequestType.ST.hit_latency_hist_seqr::samples     27465400                       (Unspecified)
system.ruby.RequestType.ST.hit_latency_hist_seqr::mean            1                       (Unspecified)
system.ruby.RequestType.ST.hit_latency_hist_seqr::gmean            1                       (Unspecified)
system.ruby.RequestType.ST.hit_latency_hist_seqr |           0      0.00%      0.00% |    27465400    100.00%    100.00% |           0      0.00%    100.00% |           0      0.00%    100.00% |           0      0.00%    100.00% |           0      0.00%    100.00% |           0      0.00%    100.00% |           0      0.00%    100.00% |           0      0.00%    100.00% |           0      0.00%    100.00% (Unspecified)
system.ruby.RequestType.ST.hit_latency_hist_seqr::total     27465400                       (Unspecified)
system.ruby.RequestType.IFETCH.latency_hist_seqr::bucket_size            1                       (Unspecified)
system.ruby.RequestType.IFETCH.latency_hist_seqr::max_bucket            9                       (Unspecified)
system.ruby.RequestType.IFETCH.latency_hist_seqr::samples     27461799                       (Unspecified)
system.ruby.RequestType.IFETCH.latency_hist_seqr::mean            1                       (Unspecified)
system.ruby.RequestType.IFETCH.latency_hist_seqr::gmean            1                       (Unspecified)
system.ruby.RequestType.IFETCH.latency_hist_seqr |           0      0.00%      0.00% |    27461799    100.00%    100.00% |           0      0.00%    100.00% |           0      0.00%    100.00% |           0      0.00%    100.00% |           0      0.00%    100.00% |           0      0.00%    100.00% |           0      0.00%    100.00% |           0      0.00%    100.00% |           0      0.00%    100.00% (Unspecified)
system.ruby.RequestType.IFETCH.latency_hist_seqr::total     27461799                       (Unspecified)
system.ruby.RequestType.IFETCH.hit_latency_hist_seqr::bucket_size            1                       (Unspecified)
system.ruby.RequestType.IFETCH.hit_latency_hist_seqr::max_bucket            9                       (Unspecified)
system.ruby.RequestType.IFETCH.hit_latency_hist_seqr::samples     27461799                       (Unspecified)
system.ruby.RequestType.IFETCH.hit_latency_hist_seqr::mean            1                       (Unspecified)
system.ruby.RequestType.IFETCH.hit_latency_hist_seqr::gmean            1                       (Unspecified)
system.ruby.RequestType.IFETCH.hit_latency_hist_seqr |           0      0.00%      0.00% |    27461799    100.00%    100.00% |           0      0.00%    100.00% |           0      0.00%    100.00% |           0      0.00%    100.00% |           0      0.00%    100.00% |           0      0.00%    100.00% |           0      0.00%    100.00% |           0      0.00%    100.00% |           0      0.00%    100.00% (Unspecified)
system.ruby.RequestType.IFETCH.hit_latency_hist_seqr::total     27461799                       (Unspecified)
system.ruby.clk_domain.clock                      250                       # Clock period in ticks (Tick)
system.ruby.dir_cntrl0.forwardToDir.m_msg_count       429236                       # Number of messages passed the buffer (Count)
system.ruby.dir_cntrl0.forwardToDir.m_buf_msgs     0.049970                       # Average number of messages in buffer ((Count/Tick))
system.ruby.dir_cntrl0.power_state.pwrStateResidencyTicks::UNDEFINED   2147483750                       # Cumulative time (in ticks) in various power states (Tick)
system.ruby.dir_cntrl0.requestToDir.m_msg_count       428316                       # Number of messages passed the buffer (Count)
system.ruby.dir_cntrl0.requestToDir.m_buf_msgs     0.049863                       # Average number of messages in buffer ((Count/Tick))
system.ruby.dir_cntrl0.responseToDir.m_msg_count       166980                       # Number of messages passed the buffer (Count)
system.ruby.dir_cntrl0.responseToDir.m_buf_msgs     0.019439                       # Average number of messages in buffer ((Count/Tick))
system.ruby.dir_cntrl1.forwardToDir.m_msg_count       428677                       # Number of messages passed the buffer (Count)
system.ruby.dir_cntrl1.forwardToDir.m_buf_msgs     0.049905                       # Average number of messages in buffer ((Count/Tick))
system.ruby.dir_cntrl1.power_state.pwrStateResidencyTicks::UNDEFINED   2147483750                       # Cumulative time (in ticks) in various power states (Tick)
system.ruby.dir_cntrl1.requestToDir.m_msg_count       429183                       # Number of messages passed the buffer (Count)
system.ruby.dir_cntrl1.requestToDir.m_buf_msgs     0.049963                       # Average number of messages in buffer ((Count/Tick))
system.ruby.dir_cntrl1.responseToDir.m_msg_count       167582                       # Number of messages passed the buffer (Count)
system.ruby.dir_cntrl1.responseToDir.m_buf_msgs     0.019509                       # Average number of messages in buffer ((Count/Tick))
system.ruby.dir_cntrl10.forwardToDir.m_msg_count       429777                       # Number of messages passed the buffer (Count)
system.ruby.dir_cntrl10.forwardToDir.m_buf_msgs     0.050033                       # Average number of messages in buffer ((Count/Tick))
system.ruby.dir_cntrl10.power_state.pwrStateResidencyTicks::UNDEFINED   2147483750                       # Cumulative time (in ticks) in various power states (Tick)
system.ruby.dir_cntrl10.requestToDir.m_msg_count       429351                       # Number of messages passed the buffer (Count)
system.ruby.dir_cntrl10.requestToDir.m_buf_msgs     0.049983                       # Average number of messages in buffer ((Count/Tick))
system.ruby.dir_cntrl10.responseToDir.m_msg_count       166998                       # Number of messages passed the buffer (Count)
system.ruby.dir_cntrl10.responseToDir.m_buf_msgs     0.019441                       # Average number of messages in buffer ((Count/Tick))
system.ruby.dir_cntrl11.forwardToDir.m_msg_count       428591                       # Number of messages passed the buffer (Count)
system.ruby.dir_cntrl11.forwardToDir.m_buf_msgs     0.049895                       # Average number of messages in buffer ((Count/Tick))
system.ruby.dir_cntrl11.power_state.pwrStateResidencyTicks::UNDEFINED   2147483750                       # Cumulative time (in ticks) in various power states (Tick)
system.ruby.dir_cntrl11.requestToDir.m_msg_count       429799                       # Number of messages passed the buffer (Count)
system.ruby.dir_cntrl11.requestToDir.m_buf_msgs     0.050035                       # Average number of messages in buffer ((Count/Tick))
system.ruby.dir_cntrl11.responseToDir.m_msg_count       167493                       # Number of messages passed the buffer (Count)
system.ruby.dir_cntrl11.responseToDir.m_buf_msgs     0.019499                       # Average number of messages in buffer ((Count/Tick))
system.ruby.dir_cntrl12.forwardToDir.m_msg_count       427714                       # Number of messages passed the buffer (Count)
system.ruby.dir_cntrl12.forwardToDir.m_buf_msgs     0.049792                       # Average number of messages in buffer ((Count/Tick))
system.ruby.dir_cntrl12.power_state.pwrStateResidencyTicks::UNDEFINED   2147483750                       # Cumulative time (in ticks) in various power states (Tick)
system.ruby.dir_cntrl12.requestToDir.m_msg_count       429279                       # Number of messages passed the buffer (Count)
system.ruby.dir_cntrl12.requestToDir.m_buf_msgs     0.049975                       # Average number of messages in buffer ((Count/Tick))
system.ruby.dir_cntrl12.responseToDir.m_msg_count       166684                       # Number of messages passed the buffer (Count)
system.ruby.dir_cntrl12.responseToDir.m_buf_msgs     0.019405                       # Average number of messages in buffer ((Count/Tick))
system.ruby.dir_cntrl13.forwardToDir.m_msg_count       430747                       # Number of messages passed the buffer (Count)
system.ruby.dir_cntrl13.forwardToDir.m_buf_msgs     0.050146                       # Average number of messages in buffer ((Count/Tick))
system.ruby.dir_cntrl13.power_state.pwrStateResidencyTicks::UNDEFINED   2147483750                       # Cumulative time (in ticks) in various power states (Tick)
system.ruby.dir_cntrl13.requestToDir.m_msg_count       428066                       # Number of messages passed the buffer (Count)
system.ruby.dir_cntrl13.requestToDir.m_buf_msgs     0.049833                       # Average number of messages in buffer ((Count/Tick))
system.ruby.dir_cntrl13.responseToDir.m_msg_count       167686                       # Number of messages passed the buffer (Count)
system.ruby.dir_cntrl13.responseToDir.m_buf_msgs     0.019521                       # Average number of messages in buffer ((Count/Tick))
system.ruby.dir_cntrl14.forwardToDir.m_msg_count       428912                       # Number of messages passed the buffer (Count)
system.ruby.dir_cntrl14.forwardToDir.m_buf_msgs     0.049932                       # Average number of messages in buffer ((Count/Tick))
system.ruby.dir_cntrl14.power_state.pwrStateResidencyTicks::UNDEFINED   2147483750                       # Cumulative time (in ticks) in various power states (Tick)
system.ruby.dir_cntrl14.requestToDir.m_msg_count       428657                       # Number of messages passed the buffer (Count)
system.ruby.dir_cntrl14.requestToDir.m_buf_msgs     0.049902                       # Average number of messages in buffer ((Count/Tick))
system.ruby.dir_cntrl14.responseToDir.m_msg_count       167270                       # Number of messages passed the buffer (Count)
system.ruby.dir_cntrl14.responseToDir.m_buf_msgs     0.019473                       # Average number of messages in buffer ((Count/Tick))
system.ruby.dir_cntrl15.forwardToDir.m_msg_count       429747                       # Number of messages passed the buffer (Count)
system.ruby.dir_cntrl15.forwardToDir.m_buf_msgs     0.050029                       # Average number of messages in buffer ((Count/Tick))
system.ruby.dir_cntrl15.power_state.pwrStateResidencyTicks::UNDEFINED   2147483750                       # Cumulative time (in ticks) in various power states (Tick)
system.ruby.dir_cntrl15.requestToDir.m_msg_count       429461                       # Number of messages passed the buffer (Count)
system.ruby.dir_cntrl15.requestToDir.m_buf_msgs     0.049996                       # Average number of messages in buffer ((Count/Tick))
system.ruby.dir_cntrl15.responseToDir.m_msg_count       167479                       # Number of messages passed the buffer (Count)
system.ruby.dir_cntrl15.responseToDir.m_buf_msgs     0.019497                       # Average number of messages in buffer ((Count/Tick))
system.ruby.dir_cntrl16.forwardToDir.m_msg_count       429748                       # Number of messages passed the buffer (Count)
system.ruby.dir_cntrl16.forwardToDir.m_buf_msgs     0.050029                       # Average number of messages in buffer ((Count/Tick))
system.ruby.dir_cntrl16.power_state.pwrStateResidencyTicks::UNDEFINED   2147483750                       # Cumulative time (in ticks) in various power states (Tick)
system.ruby.dir_cntrl16.requestToDir.m_msg_count       427971                       # Number of messages passed the buffer (Count)
system.ruby.dir_cntrl16.requestToDir.m_buf_msgs     0.049822                       # Average number of messages in buffer ((Count/Tick))
system.ruby.dir_cntrl16.responseToDir.m_msg_count       167472                       # Number of messages passed the buffer (Count)
system.ruby.dir_cntrl16.responseToDir.m_buf_msgs     0.019496                       # Average number of messages in buffer ((Count/Tick))
system.ruby.dir_cntrl17.forwardToDir.m_msg_count       429303                       # Number of messages passed the buffer (Count)
system.ruby.dir_cntrl17.forwardToDir.m_buf_msgs     0.049977                       # Average number of messages in buffer ((Count/Tick))
system.ruby.dir_cntrl17.power_state.pwrStateResidencyTicks::UNDEFINED   2147483750                       # Cumulative time (in ticks) in various power states (Tick)
system.ruby.dir_cntrl17.requestToDir.m_msg_count       429798                       # Number of messages passed the buffer (Count)
system.ruby.dir_cntrl17.requestToDir.m_buf_msgs     0.050035                       # Average number of messages in buffer ((Count/Tick))
system.ruby.dir_cntrl17.responseToDir.m_msg_count       167475                       # Number of messages passed the buffer (Count)
system.ruby.dir_cntrl17.responseToDir.m_buf_msgs     0.019497                       # Average number of messages in buffer ((Count/Tick))
system.ruby.dir_cntrl18.forwardToDir.m_msg_count       428699                       # Number of messages passed the buffer (Count)
system.ruby.dir_cntrl18.forwardToDir.m_buf_msgs     0.049907                       # Average number of messages in buffer ((Count/Tick))
system.ruby.dir_cntrl18.power_state.pwrStateResidencyTicks::UNDEFINED   2147483750                       # Cumulative time (in ticks) in various power states (Tick)
system.ruby.dir_cntrl18.requestToDir.m_msg_count       429977                       # Number of messages passed the buffer (Count)
system.ruby.dir_cntrl18.requestToDir.m_buf_msgs     0.050056                       # Average number of messages in buffer ((Count/Tick))
system.ruby.dir_cntrl18.responseToDir.m_msg_count       167868                       # Number of messages passed the buffer (Count)
system.ruby.dir_cntrl18.responseToDir.m_buf_msgs     0.019542                       # Average number of messages in buffer ((Count/Tick))
system.ruby.dir_cntrl19.forwardToDir.m_msg_count       429550                       # Number of messages passed the buffer (Count)
system.ruby.dir_cntrl19.forwardToDir.m_buf_msgs     0.050006                       # Average number of messages in buffer ((Count/Tick))
system.ruby.dir_cntrl19.power_state.pwrStateResidencyTicks::UNDEFINED   2147483750                       # Cumulative time (in ticks) in various power states (Tick)
system.ruby.dir_cntrl19.requestToDir.m_msg_count       429268                       # Number of messages passed the buffer (Count)
system.ruby.dir_cntrl19.requestToDir.m_buf_msgs     0.049973                       # Average number of messages in buffer ((Count/Tick))
system.ruby.dir_cntrl19.responseToDir.m_msg_count       167385                       # Number of messages passed the buffer (Count)
system.ruby.dir_cntrl19.responseToDir.m_buf_msgs     0.019486                       # Average number of messages in buffer ((Count/Tick))
system.ruby.dir_cntrl2.forwardToDir.m_msg_count       429489                       # Number of messages passed the buffer (Count)
system.ruby.dir_cntrl2.forwardToDir.m_buf_msgs     0.049999                       # Average number of messages in buffer ((Count/Tick))
system.ruby.dir_cntrl2.power_state.pwrStateResidencyTicks::UNDEFINED   2147483750                       # Cumulative time (in ticks) in various power states (Tick)
system.ruby.dir_cntrl2.requestToDir.m_msg_count       428842                       # Number of messages passed the buffer (Count)
system.ruby.dir_cntrl2.requestToDir.m_buf_msgs     0.049924                       # Average number of messages in buffer ((Count/Tick))
system.ruby.dir_cntrl2.responseToDir.m_msg_count       167167                       # Number of messages passed the buffer (Count)
system.ruby.dir_cntrl2.responseToDir.m_buf_msgs     0.019461                       # Average number of messages in buffer ((Count/Tick))
system.ruby.dir_cntrl20.forwardToDir.m_msg_count       429303                       # Number of messages passed the buffer (Count)
system.ruby.dir_cntrl20.forwardToDir.m_buf_msgs     0.049977                       # Average number of messages in buffer ((Count/Tick))
system.ruby.dir_cntrl20.power_state.pwrStateResidencyTicks::UNDEFINED   2147483750                       # Cumulative time (in ticks) in various power states (Tick)
system.ruby.dir_cntrl20.requestToDir.m_msg_count       429528                       # Number of messages passed the buffer (Count)
system.ruby.dir_cntrl20.requestToDir.m_buf_msgs     0.050004                       # Average number of messages in buffer ((Count/Tick))
system.ruby.dir_cntrl20.responseToDir.m_msg_count       167595                       # Number of messages passed the buffer (Count)
system.ruby.dir_cntrl20.responseToDir.m_buf_msgs     0.019511                       # Average number of messages in buffer ((Count/Tick))
system.ruby.dir_cntrl21.forwardToDir.m_msg_count       429247                       # Number of messages passed the buffer (Count)
system.ruby.dir_cntrl21.forwardToDir.m_buf_msgs     0.049971                       # Average number of messages in buffer ((Count/Tick))
system.ruby.dir_cntrl21.power_state.pwrStateResidencyTicks::UNDEFINED   2147483750                       # Cumulative time (in ticks) in various power states (Tick)
system.ruby.dir_cntrl21.requestToDir.m_msg_count       428327                       # Number of messages passed the buffer (Count)
system.ruby.dir_cntrl21.requestToDir.m_buf_msgs     0.049864                       # Average number of messages in buffer ((Count/Tick))
system.ruby.dir_cntrl21.responseToDir.m_msg_count       167191                       # Number of messages passed the buffer (Count)
system.ruby.dir_cntrl21.responseToDir.m_buf_msgs     0.019464                       # Average number of messages in buffer ((Count/Tick))
system.ruby.dir_cntrl22.forwardToDir.m_msg_count       427466                       # Number of messages passed the buffer (Count)
system.ruby.dir_cntrl22.forwardToDir.m_buf_msgs     0.049764                       # Average number of messages in buffer ((Count/Tick))
system.ruby.dir_cntrl22.power_state.pwrStateResidencyTicks::UNDEFINED   2147483750                       # Cumulative time (in ticks) in various power states (Tick)
system.ruby.dir_cntrl22.requestToDir.m_msg_count       428813                       # Number of messages passed the buffer (Count)
system.ruby.dir_cntrl22.requestToDir.m_buf_msgs     0.049920                       # Average number of messages in buffer ((Count/Tick))
system.ruby.dir_cntrl22.responseToDir.m_msg_count       167996                       # Number of messages passed the buffer (Count)
system.ruby.dir_cntrl22.responseToDir.m_buf_msgs     0.019557                       # Average number of messages in buffer ((Count/Tick))
system.ruby.dir_cntrl23.forwardToDir.m_msg_count       429096                       # Number of messages passed the buffer (Count)
system.ruby.dir_cntrl23.forwardToDir.m_buf_msgs     0.049953                       # Average number of messages in buffer ((Count/Tick))
system.ruby.dir_cntrl23.power_state.pwrStateResidencyTicks::UNDEFINED   2147483750                       # Cumulative time (in ticks) in various power states (Tick)
system.ruby.dir_cntrl23.requestToDir.m_msg_count       428863                       # Number of messages passed the buffer (Count)
system.ruby.dir_cntrl23.requestToDir.m_buf_msgs     0.049926                       # Average number of messages in buffer ((Count/Tick))
system.ruby.dir_cntrl23.responseToDir.m_msg_count       167351                       # Number of messages passed the buffer (Count)
system.ruby.dir_cntrl23.responseToDir.m_buf_msgs     0.019482                       # Average number of messages in buffer ((Count/Tick))
system.ruby.dir_cntrl24.forwardToDir.m_msg_count       429750                       # Number of messages passed the buffer (Count)
system.ruby.dir_cntrl24.forwardToDir.m_buf_msgs     0.050029                       # Average number of messages in buffer ((Count/Tick))
system.ruby.dir_cntrl24.power_state.pwrStateResidencyTicks::UNDEFINED   2147483750                       # Cumulative time (in ticks) in various power states (Tick)
system.ruby.dir_cntrl24.requestToDir.m_msg_count       428269                       # Number of messages passed the buffer (Count)
system.ruby.dir_cntrl24.requestToDir.m_buf_msgs     0.049857                       # Average number of messages in buffer ((Count/Tick))
system.ruby.dir_cntrl24.responseToDir.m_msg_count       167565                       # Number of messages passed the buffer (Count)
system.ruby.dir_cntrl24.responseToDir.m_buf_msgs     0.019507                       # Average number of messages in buffer ((Count/Tick))
system.ruby.dir_cntrl25.forwardToDir.m_msg_count       429131                       # Number of messages passed the buffer (Count)
system.ruby.dir_cntrl25.forwardToDir.m_buf_msgs     0.049957                       # Average number of messages in buffer ((Count/Tick))
system.ruby.dir_cntrl25.power_state.pwrStateResidencyTicks::UNDEFINED   2147483750                       # Cumulative time (in ticks) in various power states (Tick)
system.ruby.dir_cntrl25.requestToDir.m_msg_count       427811                       # Number of messages passed the buffer (Count)
system.ruby.dir_cntrl25.requestToDir.m_buf_msgs     0.049804                       # Average number of messages in buffer ((Count/Tick))
system.ruby.dir_cntrl25.responseToDir.m_msg_count       167472                       # Number of messages passed the buffer (Count)
system.ruby.dir_cntrl25.responseToDir.m_buf_msgs     0.019496                       # Average number of messages in buffer ((Count/Tick))
system.ruby.dir_cntrl26.forwardToDir.m_msg_count       428837                       # Number of messages passed the buffer (Count)
system.ruby.dir_cntrl26.forwardToDir.m_buf_msgs     0.049923                       # Average number of messages in buffer ((Count/Tick))
system.ruby.dir_cntrl26.power_state.pwrStateResidencyTicks::UNDEFINED   2147483750                       # Cumulative time (in ticks) in various power states (Tick)
system.ruby.dir_cntrl26.requestToDir.m_msg_count       430020                       # Number of messages passed the buffer (Count)
system.ruby.dir_cntrl26.requestToDir.m_buf_msgs     0.050061                       # Average number of messages in buffer ((Count/Tick))
system.ruby.dir_cntrl26.responseToDir.m_msg_count       167746                       # Number of messages passed the buffer (Count)
system.ruby.dir_cntrl26.responseToDir.m_buf_msgs     0.019528                       # Average number of messages in buffer ((Count/Tick))
system.ruby.dir_cntrl27.forwardToDir.m_msg_count       428025                       # Number of messages passed the buffer (Count)
system.ruby.dir_cntrl27.forwardToDir.m_buf_msgs     0.049829                       # Average number of messages in buffer ((Count/Tick))
system.ruby.dir_cntrl27.power_state.pwrStateResidencyTicks::UNDEFINED   2147483750                       # Cumulative time (in ticks) in various power states (Tick)
[...]
system.ruby.network.sankey.vcvn35.vcvn5             0                       (Unspecified)
system.ruby.network.sankey.vcvn35.vcvn6             0                       (Unspecified)
system.ruby.network.sankey.vcvn35.vcvn7             0                       (Unspecified)
system.ruby.network.sankey.vcvn35.vcvn8             0                       (Unspecified)
system.ruby.network.sankey.vcvn35.vcvn9             0                       (Unspecified)
system.ruby.network.sankey.vcvn4.vcvn0        1862792                       (Unspecified)
system.ruby.network.sankey.vcvn4.vcvn1         506607                       (Unspecified)
system.ruby.network.sankey.vcvn4.vcvn10          1759                       (Unspecified)
system.ruby.network.sankey.vcvn4.vcvn11          2030                       (Unspecified)
system.ruby.network.sankey.vcvn4.vcvn12             0                       (Unspecified)
system.ruby.network.sankey.vcvn4.vcvn13             0                       (Unspecified)
system.ruby.network.sankey.vcvn4.vcvn14             0                       (Unspecified)
system.ruby.network.sankey.vcvn4.vcvn15             0                       (Unspecified)
system.ruby.network.sankey.vcvn4.vcvn16             0                       (Unspecified)
system.ruby.network.sankey.vcvn4.vcvn17             0                       (Unspecified)
system.ruby.network.sankey.vcvn4.vcvn18             0                       (Unspecified)
system.ruby.network.sankey.vcvn4.vcvn19             0                       (Unspecified)
system.ruby.network.sankey.vcvn4.vcvn2          82404                       (Unspecified)
system.ruby.network.sankey.vcvn4.vcvn20             0                       (Unspecified)
system.ruby.network.sankey.vcvn4.vcvn21             0                       (Unspecified)
system.ruby.network.sankey.vcvn4.vcvn22             0                       (Unspecified)
system.ruby.network.sankey.vcvn4.vcvn23             0                       (Unspecified)
system.ruby.network.sankey.vcvn4.vcvn24             0                       (Unspecified)
system.ruby.network.sankey.vcvn4.vcvn25             0                       (Unspecified)
system.ruby.network.sankey.vcvn4.vcvn26             0                       (Unspecified)
system.ruby.network.sankey.vcvn4.vcvn27             0                       (Unspecified)
system.ruby.network.sankey.vcvn4.vcvn28             0                       (Unspecified)
system.ruby.network.sankey.vcvn4.vcvn29             0                       (Unspecified)
system.ruby.network.sankey.vcvn4.vcvn3           8310                       (Unspecified)
system.ruby.network.sankey.vcvn4.vcvn30             0                       (Unspecified)
system.ruby.network.sankey.vcvn4.vcvn31             0                       (Unspecified)
system.ruby.network.sankey.vcvn4.vcvn32             0                       (Unspecified)
system.ruby.network.sankey.vcvn4.vcvn33             0                       (Unspecified)
system.ruby.network.sankey.vcvn4.vcvn34             0                       (Unspecified)
system.ruby.network.sankey.vcvn4.vcvn35             0                       (Unspecified)
system.ruby.network.sankey.vcvn4.vcvn4            424                       (Unspecified)
system.ruby.network.sankey.vcvn4.vcvn5              1                       (Unspecified)
system.ruby.network.sankey.vcvn4.vcvn6              0                       (Unspecified)
system.ruby.network.sankey.vcvn4.vcvn7              0                       (Unspecified)
system.ruby.network.sankey.vcvn4.vcvn8              0                       (Unspecified)
system.ruby.network.sankey.vcvn4.vcvn9              0                       (Unspecified)
system.ruby.network.sankey.vcvn5.vcvn0        1863734                       (Unspecified)
system.ruby.network.sankey.vcvn5.vcvn1         505256                       (Unspecified)
system.ruby.network.sankey.vcvn5.vcvn10          1744                       (Unspecified)
system.ruby.network.sankey.vcvn5.vcvn11          2137                       (Unspecified)
system.ruby.network.sankey.vcvn5.vcvn12             0                       (Unspecified)
system.ruby.network.sankey.vcvn5.vcvn13             0                       (Unspecified)
system.ruby.network.sankey.vcvn5.vcvn14             0                       (Unspecified)
system.ruby.network.sankey.vcvn5.vcvn15             0                       (Unspecified)
system.ruby.network.sankey.vcvn5.vcvn16             0                       (Unspecified)
system.ruby.network.sankey.vcvn5.vcvn17             0                       (Unspecified)
system.ruby.network.sankey.vcvn5.vcvn18             0                       (Unspecified)
system.ruby.network.sankey.vcvn5.vcvn19             0                       (Unspecified)
system.ruby.network.sankey.vcvn5.vcvn2          82671                       (Unspecified)
system.ruby.network.sankey.vcvn5.vcvn20             0                       (Unspecified)
system.ruby.network.sankey.vcvn5.vcvn21             0                       (Unspecified)
system.ruby.network.sankey.vcvn5.vcvn22             0                       (Unspecified)
system.ruby.network.sankey.vcvn5.vcvn23             0                       (Unspecified)
system.ruby.network.sankey.vcvn5.vcvn24             0                       (Unspecified)
system.ruby.network.sankey.vcvn5.vcvn25             0                       (Unspecified)
system.ruby.network.sankey.vcvn5.vcvn26             0                       (Unspecified)
system.ruby.network.sankey.vcvn5.vcvn27             0                       (Unspecified)
system.ruby.network.sankey.vcvn5.vcvn28             0                       (Unspecified)
system.ruby.network.sankey.vcvn5.vcvn29             0                       (Unspecified)
system.ruby.network.sankey.vcvn5.vcvn3           8359                       (Unspecified)
system.ruby.network.sankey.vcvn5.vcvn30             0                       (Unspecified)
system.ruby.network.sankey.vcvn5.vcvn31             0                       (Unspecified)
system.ruby.network.sankey.vcvn5.vcvn32             0                       (Unspecified)
system.ruby.network.sankey.vcvn5.vcvn33             0                       (Unspecified)
system.ruby.network.sankey.vcvn5.vcvn34             0                       (Unspecified)
system.ruby.network.sankey.vcvn5.vcvn35             0                       (Unspecified)
system.ruby.network.sankey.vcvn5.vcvn4            422                       (Unspecified)
system.ruby.network.sankey.vcvn5.vcvn5              3                       (Unspecified)
system.ruby.network.sankey.vcvn5.vcvn6              0                       (Unspecified)
system.ruby.network.sankey.vcvn5.vcvn7              0                       (Unspecified)
system.ruby.network.sankey.vcvn5.vcvn8              0                       (Unspecified)
system.ruby.network.sankey.vcvn5.vcvn9              0                       (Unspecified)
system.ruby.network.sankey.vcvn6.vcvn0        1864694                       (Unspecified)
system.ruby.network.sankey.vcvn6.vcvn1         504608                       (Unspecified)
system.ruby.network.sankey.vcvn6.vcvn10          1660                       (Unspecified)
system.ruby.network.sankey.vcvn6.vcvn11          2091                       (Unspecified)
system.ruby.network.sankey.vcvn6.vcvn12             0                       (Unspecified)
system.ruby.network.sankey.vcvn6.vcvn13             0                       (Unspecified)
system.ruby.network.sankey.vcvn6.vcvn14             0                       (Unspecified)
system.ruby.network.sankey.vcvn6.vcvn15             0                       (Unspecified)
system.ruby.network.sankey.vcvn6.vcvn16             0                       (Unspecified)
system.ruby.network.sankey.vcvn6.vcvn17             0                       (Unspecified)
system.ruby.network.sankey.vcvn6.vcvn18             0                       (Unspecified)
system.ruby.network.sankey.vcvn6.vcvn19             0                       (Unspecified)
system.ruby.network.sankey.vcvn6.vcvn2          82449                       (Unspecified)
system.ruby.network.sankey.vcvn6.vcvn20             0                       (Unspecified)
system.ruby.network.sankey.vcvn6.vcvn21             0                       (Unspecified)
system.ruby.network.sankey.vcvn6.vcvn22             0                       (Unspecified)
system.ruby.network.sankey.vcvn6.vcvn23             0                       (Unspecified)
system.ruby.network.sankey.vcvn6.vcvn24             0                       (Unspecified)
system.ruby.network.sankey.vcvn6.vcvn25             0                       (Unspecified)
system.ruby.network.sankey.vcvn6.vcvn26             0                       (Unspecified)
system.ruby.network.sankey.vcvn6.vcvn27             0                       (Unspecified)
system.ruby.network.sankey.vcvn6.vcvn28             0                       (Unspecified)
system.ruby.network.sankey.vcvn6.vcvn29             0                       (Unspecified)
system.ruby.network.sankey.vcvn6.vcvn3           8349                       (Unspecified)
system.ruby.network.sankey.vcvn6.vcvn30             0                       (Unspecified)
system.ruby.network.sankey.vcvn6.vcvn31             0                       (Unspecified)
system.ruby.network.sankey.vcvn6.vcvn32             0                       (Unspecified)
system.ruby.network.sankey.vcvn6.vcvn33             0                       (Unspecified)
system.ruby.network.sankey.vcvn6.vcvn34             0                       (Unspecified)
system.ruby.network.sankey.vcvn6.vcvn35             0                       (Unspecified)
system.ruby.network.sankey.vcvn6.vcvn4            465                       (Unspecified)
system.ruby.network.sankey.vcvn6.vcvn5              4                       (Unspecified)
system.ruby.network.sankey.vcvn6.vcvn6              0                       (Unspecified)
system.ruby.network.sankey.vcvn6.vcvn7              0                       (Unspecified)
system.ruby.network.sankey.vcvn6.vcvn8              0                       (Unspecified)
system.ruby.network.sankey.vcvn6.vcvn9              0                       (Unspecified)
system.ruby.network.sankey.vcvn7.vcvn0        1863724                       (Unspecified)
system.ruby.network.sankey.vcvn7.vcvn1         505744                       (Unspecified)
system.ruby.network.sankey.vcvn7.vcvn10          1732                       (Unspecified)
system.ruby.network.sankey.vcvn7.vcvn11          2136                       (Unspecified)
system.ruby.network.sankey.vcvn7.vcvn12             0                       (Unspecified)
system.ruby.network.sankey.vcvn7.vcvn13             0                       (Unspecified)
system.ruby.network.sankey.vcvn7.vcvn14             0                       (Unspecified)
system.ruby.network.sankey.vcvn7.vcvn15             0                       (Unspecified)
system.ruby.network.sankey.vcvn7.vcvn16             0                       (Unspecified)
system.ruby.network.sankey.vcvn7.vcvn17             0                       (Unspecified)
system.ruby.network.sankey.vcvn7.vcvn18             0                       (Unspecified)
system.ruby.network.sankey.vcvn7.vcvn19             0                       (Unspecified)
system.ruby.network.sankey.vcvn7.vcvn2          82218                       (Unspecified)
system.ruby.network.sankey.vcvn7.vcvn20             0                       (Unspecified)
system.ruby.network.sankey.vcvn7.vcvn21             0                       (Unspecified)
system.ruby.network.sankey.vcvn7.vcvn22             0                       (Unspecified)
system.ruby.network.sankey.vcvn7.vcvn23             0                       (Unspecified)
system.ruby.network.sankey.vcvn7.vcvn24             0                       (Unspecified)
system.ruby.network.sankey.vcvn7.vcvn25             0                       (Unspecified)
system.ruby.network.sankey.vcvn7.vcvn26             0                       (Unspecified)
system.ruby.network.sankey.vcvn7.vcvn27             0                       (Unspecified)
system.ruby.network.sankey.vcvn7.vcvn28             0                       (Unspecified)
system.ruby.network.sankey.vcvn7.vcvn29             0                       (Unspecified)
system.ruby.network.sankey.vcvn7.vcvn3           8308                       (Unspecified)
system.ruby.network.sankey.vcvn7.vcvn30             0                       (Unspecified)
system.ruby.network.sankey.vcvn7.vcvn31             0                       (Unspecified)
system.ruby.network.sankey.vcvn7.vcvn32             0                       (Unspecified)
system.ruby.network.sankey.vcvn7.vcvn33             0                       (Unspecified)
system.ruby.network.sankey.vcvn7.vcvn34             0                       (Unspecified)
system.ruby.network.sankey.vcvn7.vcvn35             0                       (Unspecified)
system.ruby.network.sankey.vcvn7.vcvn4            452                       (Unspecified)
system.ruby.network.sankey.vcvn7.vcvn5              3                       (Unspecified)
system.ruby.network.sankey.vcvn7.vcvn6              0                       (Unspecified)
system.ruby.network.sankey.vcvn7.vcvn7              0                       (Unspecified)
system.ruby.network.sankey.vcvn7.vcvn8              0                       (Unspecified)
system.ruby.network.sankey.vcvn7.vcvn9              0                       (Unspecified)
system.ruby.network.sankey.vcvn8.vcvn0        1862873                       (Unspecified)
system.ruby.network.sankey.vcvn8.vcvn1         505984                       (Unspecified)
system.ruby.network.sankey.vcvn8.vcvn10          1676                       (Unspecified)
system.ruby.network.sankey.vcvn8.vcvn11          2101                       (Unspecified)
system.ruby.network.sankey.vcvn8.vcvn12             0                       (Unspecified)
system.ruby.network.sankey.vcvn8.vcvn13             0                       (Unspecified)
system.ruby.network.sankey.vcvn8.vcvn14             0                       (Unspecified)
system.ruby.network.sankey.vcvn8.vcvn15             0                       (Unspecified)
system.ruby.network.sankey.vcvn8.vcvn16             0                       (Unspecified)
system.ruby.network.sankey.vcvn8.vcvn17             0                       (Unspecified)
system.ruby.network.sankey.vcvn8.vcvn18             0                       (Unspecified)
system.ruby.network.sankey.vcvn8.vcvn19             0                       (Unspecified)
system.ruby.network.sankey.vcvn8.vcvn2          82816                       (Unspecified)
system.ruby.network.sankey.vcvn8.vcvn20             0                       (Unspecified)
system.ruby.network.sankey.vcvn8.vcvn21             0                       (Unspecified)
system.ruby.network.sankey.vcvn8.vcvn22             0                       (Unspecified)
system.ruby.network.sankey.vcvn8.vcvn23             0                       (Unspecified)
system.ruby.network.sankey.vcvn8.vcvn24             0                       (Unspecified)
system.ruby.network.sankey.vcvn8.vcvn25             0                       (Unspecified)
system.ruby.network.sankey.vcvn8.vcvn26             0                       (Unspecified)
system.ruby.network.sankey.vcvn8.vcvn27             0                       (Unspecified)
system.ruby.network.sankey.vcvn8.vcvn28             0                       (Unspecified)
system.ruby.network.sankey.vcvn8.vcvn29             0                       (Unspecified)
system.ruby.network.sankey.vcvn8.vcvn3           8424                       (Unspecified)
system.ruby.network.sankey.vcvn8.vcvn30             0                       (Unspecified)
system.ruby.network.sankey.vcvn8.vcvn31             0                       (Unspecified)
system.ruby.network.sankey.vcvn8.vcvn32             0                       (Unspecified)
system.ruby.network.sankey.vcvn8.vcvn33             0                       (Unspecified)
system.ruby.network.sankey.vcvn8.vcvn34             0                       (Unspecified)
system.ruby.network.sankey.vcvn8.vcvn35             0                       (Unspecified)
system.ruby.network.sankey.vcvn8.vcvn4            424                       (Unspecified)
system.ruby.network.sankey.vcvn8.vcvn5              1                       (Unspecified)
system.ruby.network.sankey.vcvn8.vcvn6              0                       (Unspecified)
system.ruby.network.sankey.vcvn8.vcvn7              0                       (Unspecified)
system.ruby.network.sankey.vcvn8.vcvn8              0                       (Unspecified)
system.ruby.network.sankey.vcvn8.vcvn9              0                       (Unspecified)
system.ruby.network.sankey.vcvn9.vcvn0        1864029                       (Unspecified)
system.ruby.network.sankey.vcvn9.vcvn1         505538                       (Unspecified)
system.ruby.network.sankey.vcvn9.vcvn10          1713                       (Unspecified)
system.ruby.network.sankey.vcvn9.vcvn11          2114                       (Unspecified)
system.ruby.network.sankey.vcvn9.vcvn12             0                       (Unspecified)
system.ruby.network.sankey.vcvn9.vcvn13             0                       (Unspecified)
system.ruby.network.sankey.vcvn9.vcvn14             0                       (Unspecified)
system.ruby.network.sankey.vcvn9.vcvn15             0                       (Unspecified)
system.ruby.network.sankey.vcvn9.vcvn16             0                       (Unspecified)
system.ruby.network.sankey.vcvn9.vcvn17             0                       (Unspecified)
system.ruby.network.sankey.vcvn9.vcvn18             0                       (Unspecified)
system.ruby.network.sankey.vcvn9.vcvn19             0                       (Unspecified)
system.ruby.network.sankey.vcvn9.vcvn2          82129                       (Unspecified)
system.ruby.network.sankey.vcvn9.vcvn20             0                       (Unspecified)
system.ruby.network.sankey.vcvn9.vcvn21             0                       (Unspecified)
system.ruby.network.sankey.vcvn9.vcvn22             0                       (Unspecified)
system.ruby.network.sankey.vcvn9.vcvn23             0                       (Unspecified)
system.ruby.network.sankey.vcvn9.vcvn24             0                       (Unspecified)
system.ruby.network.sankey.vcvn9.vcvn25             0                       (Unspecified)
system.ruby.network.sankey.vcvn9.vcvn26             0                       (Unspecified)
system.ruby.network.sankey.vcvn9.vcvn27             0                       (Unspecified)
system.ruby.network.sankey.vcvn9.vcvn28             0                       (Unspecified)
system.ruby.network.sankey.vcvn9.vcvn29             0                       (Unspecified)
system.ruby.network.sankey.vcvn9.vcvn3           8298                       (Unspecified)
system.ruby.network.sankey.vcvn9.vcvn30             0                       (Unspecified)
system.ruby.network.sankey.vcvn9.vcvn31             0                       (Unspecified)
system.ruby.network.sankey.vcvn9.vcvn32             0                       (Unspecified)
system.ruby.network.sankey.vcvn9.vcvn33             0                       (Unspecified)
system.ruby.network.sankey.vcvn9.vcvn34             0                       (Unspecified)
system.ruby.network.sankey.vcvn9.vcvn35             0                       (Unspecified)
system.ruby.network.sankey.vcvn9.vcvn4            472                       (Unspecified)
system.ruby.network.sankey.vcvn9.vcvn5              1                       (Unspecified)
system.ruby.network.sankey.vcvn9.vcvn6              0                       (Unspecified)
system.ruby.network.sankey.vcvn9.vcvn7              0                       (Unspecified)
system.ruby.network.sankey.vcvn9.vcvn8              0                       (Unspecified)
system.ruby.network.sankey.vcvn9.vcvn9              0                       (Unspecified)

---------- End Simulation Statistics   ----------
