
---------- Begin Simulation Statistics ----------
simSeconds                                   0.002147                       # Number of seconds simulated (Second)
simTicks                                   2147483750                       # Number of ticks simulated (Tick)
finalTick                                  2147483750                       # Number of ticks from beginning of simulation (restored from checkpoints and never reset) (Tick)
simFreq                                  1000000000000                       # The number of ticks per simulated second ((Tick/Second))
hostSeconds                                    713.33                       # Real time elapsed on the host (Second)
hostTickRate                                  3010488                       # The number of ticks simulated per host second (ticks/s) ((Tick/Second))
hostMemory                                     792864                       # Number of bytes of host memory used (Byte)
system.clk_domain.clock                           250                       # Clock period in ticks (Tick)
system.cpu0.power_state.pwrStateResidencyTicks::UNDEFINED   2147483750                       # Cumulative time (in ticks) in various power states (Tick)
system.cpu1.power_state.pwrStateResidencyTicks::UNDEFINED   2147483750                       # Cumulative time (in ticks) in various power states (Tick)
system.cpu10.power_state.pwrStateResidencyTicks::UNDEFINED   2147483750                       # Cumulative time (in ticks) in various power states (Tick)
system.cpu11.power_state.pwrStateResidencyTicks::UNDEFINED   2147483750                       # Cumulative time (in ticks) in various power states (Tick)
system.cpu12.power_state.pwrStateResidencyTicks::UNDEFINED   2147483750                       # Cumulative time (in ticks) in various power states (Tick)
system.cpu13.power_state.pwrStateResidencyTicks::UNDEFINED   2147483750                       # Cumulative time (in ticks) in various power states (Tick)
system.cpu14.power_state.pwrStateResidencyTicks::UNDEFINED   2147483750                       # Cumulative time (in ticks) in various power states (Tick)
system.cpu15.power_state.pwrStateResidencyTicks::UNDEFINED   2147483750                       # Cumulative time (in ticks) in various power states (Tick)
system.cpu16.power_state.pwrStateResidencyTicks::UNDEFINED   2147483750                       # Cumulative time (in ticks) in various power states (Tick)
system.cpu17.power_state.pwrStateResidencyTicks::UNDEFINED   2147483750                       # Cumulative time (in ticks) in various power states (Tick)
system.cpu18.power_state.pwrStateResidencyTicks::UNDEFINED   2147483750                       # Cumulative time (in ticks) in various power states (Tick)
system.cpu19.power_state.pwrStateResidencyTicks::UNDEFINED   2147483750                       # Cumulative time (in ticks) in various power states (Tick)
system.cpu2.power_state.pwrStateResidencyTicks::UNDEFINED   2147483750                       # Cumulative time (in ticks) in various power states (Tick)
system.cpu20.power_state.pwrStateResidencyTicks::UNDEFINED   2147483750                       # Cumulative time (in ticks) in various power states (Tick)
system.cpu21.power_state.pwrStateResidencyTicks::UNDEFINED   2147483750                       # Cumulative time (in ticks) in various power states (Tick)
system.cpu22.power_state.pwrStateResidencyTicks::UNDEFINED   2147483750                       # Cumulative time (in ticks) in various power states (Tick)
system.cpu23.power_state.pwrStateResidencyTicks::UNDEFINED   2147483750                       # Cumulative time (in ticks) in various power states (Tick)
system.cpu24.power_state.pwrStateResidencyTicks::UNDEFINED   2147483750                       # Cumulative time (in ticks) in various power states (Tick)
system.cpu25.power_state.pwrStateResidencyTicks::UNDEFINED   2147483750                       # Cumulative time (in ticks) in various power states (Tick)
system.cpu26.power_state.pwrStateResidencyTicks::UNDEFINED   2147483750                       # Cumulative time (in ticks) in various power states (Tick)
system.cpu27.power_state.pwrStateResidencyTicks::UNDEFINED   2147483750                       # Cumulative time (in ticks) in various power states (Tick)
system.cpu28.power_state.pwrStateResidencyTicks::UNDEFINED   2147483750                       # Cumulative time (in ticks) in various power states (Tick)
system.cpu29.power_state.pwrStateResidencyTicks::UNDEFINED   2147483750                       # Cumulative time (in ticks) in various power states (Tick)
system.cpu3.power_state.pwrStateResidencyTicks::UNDEFINED   2147483750                       # Cumulative time (in ticks) in various power states (Tick)
system.cpu30.power_state.pwrStateResidencyTicks::UNDEFINED   2147483750                       # Cumulative time (in ticks) in various power states (Tick)
system.cpu31.power_state.pwrStateResidencyTicks::UNDEFINED   2147483750                       # Cumulative time (in ticks) in various power states (Tick)
system.cpu32.power_state.pwrStateResidencyTicks::UNDEFINED   2147483750                       # Cumulative time (in ticks) in various power states (Tick)
system.cpu33.power_state.pwrStateResidencyTicks::UNDEFINED   2147483750                       # Cumulative time (in ticks) in various power states (Tick)
system.cpu34.power_state.pwrStateResidencyTicks::UNDEFINED   2147483750                       # Cumulative time (in ticks) in various power states (Tick)
system.cpu35.power_state.pwrStateResidencyTicks::UNDEFINED   2147483750                       # Cumulative time (in ticks) in various power states (Tick)
system.cpu36.power_state.pwrStateResidencyTicks::UNDEFINED   2147483750                       # Cumulative time (in ticks) in various power states (Tick)
system.cpu37.power_state.pwrStateResidencyTicks::UNDEFINED   2147483750                       # Cumulative time (in ticks) in various power states (Tick)
system.cpu38.power_state.pwrStateResidencyTicks::UNDEFINED   2147483750                       # Cumulative time (in ticks) in various power states (Tick)
system.cpu39.power_state.pwrStateResidencyTicks::UNDEFINED   2147483750                       # Cumulative time (in ticks) in various power states (Tick)
system.cpu4.power_state.pwrStateResidencyTicks::UNDEFINED   2147483750                       # Cumulative time (in ticks) in various power states (Tick)
system.cpu5.power_state.pwrStateResidencyTicks::UNDEFINED   2147483750                       # Cumulative time (in ticks) in various power states (Tick)
system.cpu6.power_state.pwrStateResidencyTicks::UNDEFINED   2147483750                       # Cumulative time (in ticks) in various power states (Tick)
system.cpu7.power_state.pwrStateResidencyTicks::UNDEFINED   2147483750                       # Cumulative time (in ticks) in various power states (Tick)
system.cpu8.power_state.pwrStateResidencyTicks::UNDEFINED   2147483750                       # Cumulative time (in ticks) in various power states (Tick)
system.cpu9.power_state.pwrStateResidencyTicks::UNDEFINED   2147483750                       # Cumulative time (in ticks) in various power states (Tick)
system.mem_ctrls0.power_state.pwrStateResidencyTicks::UNDEFINED   2147483750                       # Cumulative time (in ticks) in various power states (Tick)
system.mem_ctrls1.power_state.pwrStateResidencyTicks::UNDEFINED   2147483750                       # Cumulative time (in ticks) in various power states (Tick)
system.mem_ctrls10.power_state.pwrStateResidencyTicks::UNDEFINED   2147483750                       # Cumulative time (in ticks) in various power states (Tick)
system.mem_ctrls100.power_state.pwrStateResidencyTicks::UNDEFINED   2147483750                       # Cumulative time (in ticks) in various power states (Tick)
system.mem_ctrls101.power_state.pwrStateResidencyTicks::UNDEFINED   2147483750                       # Cumulative time (in ticks) in various power states (Tick)
system.mem_ctrls102.power_state.pwrStateResidencyTicks::UNDEFINED   2147483750                       # Cumulative time (in ticks) in various power states (Tick)
system.mem_ctrls103.power_state.pwrStateResidencyTicks::UNDEFINED   2147483750                       # Cumulative time (in ticks) in various power states (Tick)
system.mem_ctrls104.power_state.pwrStateResidencyTicks::UNDEFINED   2147483750                       # Cumulative time (in ticks) in various power states (Tick)
system.mem_ctrls105.power_state.pwrStateResidencyTicks::UNDEFINED   2147483750                       # Cumulative time (in ticks) in various power states (Tick)
system.mem_ctrls106.power_state.pwrStateResidencyTicks::UNDEFINED   2147483750                       # Cumulative time (in ticks) in various power states (Tick)
system.mem_ctrls107.power_state.pwrStateResidencyTicks::UNDEFINED   2147483750                       # Cumulative time (in ticks) in various power states (Tick)
system.mem_ctrls108.power_state.pwrStateResidencyTicks::UNDEFINED   2147483750                       # Cumulative time (in ticks) in various power states (Tick)
system.mem_ctrls109.power_state.pwrStateResidencyTicks::UNDEFINED   2147483750                       # Cumulative time (in ticks) in various power states (Tick)
system.mem_ctrls11.power_state.pwrStateResidencyTicks::UNDEFINED   2147483750                       # Cumulative time (in ticks) in various power states (Tick)
system.mem_ctrls110.power_state.pwrStateResidencyTicks::UNDEFINED   2147483750                       # Cumulative time (in ticks) in various power states (Tick)
system.mem_ctrls111.power_state.pwrStateResidencyTicks::UNDEFINED   2147483750                       # Cumulative time (in ticks) in various power states (Tick)
system.mem_ctrls112.power_state.pwrStateResidencyTicks::UNDEFINED   2147483750                       # Cumulative time (in ticks) in various power states (Tick)
system.mem_ctrls113.power_state.pwrStateResidencyTicks::UNDEFINED   2147483750                       # Cumulative time (in ticks) in various power states (Tick)
system.mem_ctrls114.power_state.pwrStateResidencyTicks::UNDEFINED   2147483750                       # Cumulative time (in ticks) in various power states (Tick)
system.mem_ctrls115.power_state.pwrStateResidencyTicks::UNDEFINED   2147483750                       # Cumulative time (in ticks) in various power states (Tick)
system.mem_ctrls116.power_state.pwrStateResidencyTicks::UNDEFINED   2147483750                       # Cumulative time (in ticks) in various power states (Tick)
system.mem_ctrls117.power_state.pwrStateResidencyTicks::UNDEFINED   2147483750                       # Cumulative time (in ticks) in various power states (Tick)
system.mem_ctrls118.power_state.pwrStateResidencyTicks::UNDEFINED   2147483750                       # Cumulative time (in ticks) in various power states (Tick)
system.mem_ctrls119.power_state.pwrStateResidencyTicks::UNDEFINED   2147483750                       # Cumulative time (in ticks) in various power states (Tick)
system.mem_ctrls12.power_state.pwrStateResidencyTicks::UNDEFINED   2147483750                       # Cumulative time (in ticks) in various power states (Tick)
system.mem_ctrls120.power_state.pwrStateResidencyTicks::UNDEFINED   2147483750                       # Cumulative time (in ticks) in various power states (Tick)
system.mem_ctrls121.power_state.pwrStateResidencyTicks::UNDEFINED   2147483750                       # Cumulative time (in ticks) in various power states (Tick)
system.mem_ctrls122.power_state.pwrStateResidencyTicks::UNDEFINED   2147483750                       # Cumulative time (in ticks) in various power states (Tick)
system.mem_ctrls123.power_state.pwrStateResidencyTicks::UNDEFINED   2147483750                       # Cumulative time (in ticks) in various power states (Tick)
system.mem_ctrls124.power_state.pwrStateResidencyTicks::UNDEFINED   2147483750                       # Cumulative time (in ticks) in various power states (Tick)
system.mem_ctrls125.power_state.pwrStateResidencyTicks::UNDEFINED   2147483750                       # Cumulative time (in ticks) in various power states (Tick)
system.mem_ctrls126.power_state.pwrStateResidencyTicks::UNDEFINED   2147483750                       # Cumulative time (in ticks) in various power states (Tick)
system.mem_ctrls127.power_state.pwrStateResidencyTicks::UNDEFINED   2147483750                       # Cumulative time (in ticks) in various power states (Tick)
system.mem_ctrls128.power_state.pwrStateResidencyTicks::UNDEFINED   2147483750                       # Cumulative time (in ticks) in various power states (Tick)
system.mem_ctrls129.power_state.pwrStateResidencyTicks::UNDEFINED   2147483750                       # Cumulative time (in ticks) in various power states (Tick)
system.mem_ctrls13.power_state.pwrStateResidencyTicks::UNDEFINED   2147483750                       # Cumulative time (in ticks) in various power states (Tick)
system.mem_ctrls130.power_state.pwrStateResidencyTicks::UNDEFINED   2147483750                       # Cumulative time (in ticks) in various power states (Tick)
system.mem_ctrls131.power_state.pwrStateResidencyTicks::UNDEFINED   2147483750                       # Cumulative time (in ticks) in various power states (Tick)
system.mem_ctrls132.power_state.pwrStateResidencyTicks::UNDEFINED   2147483750                       # Cumulative time (in ticks) in various power states (Tick)
system.mem_ctrls133.power_state.pwrStateResidencyTicks::UNDEFINED   2147483750                       # Cumulative time (in ticks) in various power states (Tick)
system.mem_ctrls134.power_state.pwrStateResidencyTicks::UNDEFINED   2147483750                       # Cumulative time (in ticks) in various power states (Tick)
system.mem_ctrls135.power_state.pwrStateResidencyTicks::UNDEFINED   2147483750                       # Cumulative time (in ticks) in various power states (Tick)
system.mem_ctrls136.power_state.pwrStateResidencyTicks::UNDEFINED   2147483750                       # Cumulative time (in ticks) in various power states (Tick)
system.mem_ctrls137.power_state.pwrStateResidencyTicks::UNDEFINED   2147483750                       # Cumulative time (in ticks) in various power states (Tick)
system.mem_ctrls138.power_state.pwrStateResidencyTicks::UNDEFINED   2147483750                       # Cumulative time (in ticks) in various power states (Tick)
system.mem_ctrls139.power_state.pwrStateResidencyTicks::UNDEFINED   2147483750                       # Cumulative time (in ticks) in various power states (Tick)
system.mem_ctrls14.power_state.pwrStateResidencyTicks::UNDEFINED   2147483750                       # Cumulative time (in ticks) in various power states (Tick)
system.mem_ctrls140.power_state.pwrStateResidencyTicks::UNDEFINED   2147483750                       # Cumulative time (in ticks) in various power states (Tick)
system.mem_ctrls141.power_state.pwrStateResidencyTicks::UNDEFINED   2147483750                       # Cumulative time (in ticks) in various power states (Tick)
system.mem_ctrls142.power_state.pwrStateResidencyTicks::UNDEFINED   2147483750                       # Cumulative time (in ticks) in various power states (Tick)
system.mem_ctrls143.power_state.pwrStateResidencyTicks::UNDEFINED   2147483750                       # Cumulative time (in ticks) in various power states (Tick)
system.mem_ctrls144.power_state.pwrStateResidencyTicks::UNDEFINED   2147483750                       # Cumulative time (in ticks) in various power states (Tick)
system.mem_ctrls145.power_state.pwrStateResidencyTicks::UNDEFINED   2147483750                       # Cumulative time (in ticks) in various power states (Tick)
system.mem_ctrls146.power_state.pwrStateResidencyTicks::UNDEFINED   2147483750                       # Cumulative time (in ticks) in various power states (Tick)
system.mem_ctrls147.power_state.pwrStateResidencyTicks::UNDEFINED   2147483750                       # Cumulative time (in ticks) in various power states (Tick)
system.mem_ctrls148.power_state.pwrStateResidencyTicks::UNDEFINED   2147483750                       # Cumulative time (in ticks) in various power states (Tick)
system.mem_ctrls149.power_state.pwrStateResidencyTicks::UNDEFINED   2147483750                       # Cumulative time (in ticks) in various power states (Tick)
system.mem_ctrls15.power_state.pwrStateResidencyTicks::UNDEFINED   2147483750                       # Cumulative time (in ticks) in various power states (Tick)
system.mem_ctrls150.power_state.pwrStateResidencyTicks::UNDEFINED   2147483750                       # Cumulative time (in ticks) in various power states (Tick)
system.mem_ctrls151.power_state.pwrStateResidencyTicks::UNDEFINED   2147483750                       # Cumulative time (in ticks) in various power states (Tick)
system.mem_ctrls152.power_state.pwrStateResidencyTicks::UNDEFINED   2147483750                       # Cumulative time (in ticks) in various power states (Tick)
system.mem_ctrls153.power_state.pwrStateResidencyTicks::UNDEFINED   2147483750                       # Cumulative time (in ticks) in various power states (Tick)
system.mem_ctrls154.power_state.pwrStateResidencyTicks::UNDEFINED   2147483750                       # Cumulative time (in ticks) in various power states (Tick)
system.mem_ctrls155.power_state.pwrStateResidencyTicks::UNDEFINED   2147483750                       # Cumulative time (in ticks) in various power states (Tick)
system.mem_ctrls156.power_state.pwrStateResidencyTicks::UNDEFINED   2147483750                       # Cumulative time (in ticks) in various power states (Tick)
system.mem_ctrls157.power_state.pwrStateResidencyTicks::UNDEFINED   2147483750                       # Cumulative time (in ticks) in various power states (Tick)
system.mem_ctrls158.power_state.pwrStateResidencyTicks::UNDEFINED   2147483750                       # Cumulative time (in ticks) in various power states (Tick)
system.mem_ctrls159.power_state.pwrStateResidencyTicks::UNDEFINED   2147483750                       # Cumulative time (in ticks) in various power states (Tick)
system.mem_ctrls16.power_state.pwrStateResidencyTicks::UNDEFINED   2147483750                       # Cumulative time (in ticks) in various power states (Tick)
system.mem_ctrls17.power_state.pwrStateResidencyTicks::UNDEFINED   2147483750                       # Cumulative time (in ticks) in various power states (Tick)
system.mem_ctrls18.power_state.pwrStateResidencyTicks::UNDEFINED   2147483750                       # Cumulative time (in ticks) in various power states (Tick)
system.mem_ctrls19.power_state.pwrStateResidencyTicks::UNDEFINED   2147483750                       # Cumulative time (in ticks) in various power states (Tick)
system.mem_ctrls2.power_state.pwrStateResidencyTicks::UNDEFINED   2147483750                       # Cumulative time (in ticks) in various power states (Tick)
system.mem_ctrls20.power_state.pwrStateResidencyTicks::UNDEFINED   2147483750                       # Cumulative time (in ticks) in various power states (Tick)
system.mem_ctrls21.power_state.pwrStateResidencyTicks::UNDEFINED   2147483750                       # Cumulative time (in ticks) in various power states (Tick)
system.mem_ctrls22.power_state.pwrStateResidencyTicks::UNDEFINED   2147483750                       # Cumulative time (in ticks) in various power states (Tick)
system.mem_ctrls23.power_state.pwrStateResidencyTicks::UNDEFINED   2147483750                       # Cumulative time (in ticks) in various power states (Tick)
system.mem_ctrls24.power_state.pwrStateResidencyTicks::UNDEFINED   2147483750                       # Cumulative time (in ticks) in various power states (Tick)
system.mem_ctrls25.power_state.pwrStateResidencyTicks::UNDEFINED   2147483750                       # Cumulative time (in ticks) in various power states (Tick)
system.mem_ctrls26.power_state.pwrStateResidencyTicks::UNDEFINED   2147483750                       # Cumulative time (in ticks) in various power states (Tick)
system.mem_ctrls27.power_state.pwrStateResidencyTicks::UNDEFINED   2147483750                       # Cumulative time (in ticks) in various power states (Tick)
system.mem_ctrls28.power_state.pwrStateResidencyTicks::UNDEFINED   2147483750                       # Cumulative time (in ticks) in various power states (Tick)
system.mem_ctrls29.power_state.pwrStateResidencyTicks::UNDEFINED   2147483750                       # Cumulative time (in ticks) in various power states (Tick)
system.mem_ctrls3.power_state.pwrStateResidencyTicks::UNDEFINED   2147483750                       # Cumulative time (in ticks) in various power states (Tick)
system.mem_ctrls30.power_state.pwrStateResidencyTicks::UNDEFINED   2147483750                       # Cumulative time (in ticks) in various power states (Tick)
system.mem_ctrls31.power_state.pwrStateResidencyTicks::UNDEFINED   2147483750                       # Cumulative time (in ticks) in various power states (Tick)
system.mem_ctrls32.power_state.pwrStateResidencyTicks::UNDEFINED   2147483750                       # Cumulative time (in ticks) in various power states (Tick)
system.mem_ctrls33.power_state.pwrStateResidencyTicks::UNDEFINED   2147483750                       # Cumulative time (in ticks) in various power states (Tick)
system.mem_ctrls34.power_state.pwrStateResidencyTicks::UNDEFINED   2147483750                       # Cumulative time (in ticks) in various power states (Tick)
system.mem_ctrls35.power_state.pwrStateResidencyTicks::UNDEFINED   2147483750                       # Cumulative time (in ticks) in various power states (Tick)
system.mem_ctrls36.power_state.pwrStateResidencyTicks::UNDEFINED   2147483750                       # Cumulative time (in ticks) in various power states (Tick)
system.mem_ctrls37.power_state.pwrStateResidencyTicks::UNDEFINED   2147483750                       # Cumulative time (in ticks) in various power states (Tick)
system.mem_ctrls38.power_state.pwrStateResidencyTicks::UNDEFINED   2147483750                       # Cumulative time (in ticks) in various power states (Tick)
system.mem_ctrls39.power_state.pwrStateResidencyTicks::UNDEFINED   2147483750                       # Cumulative time (in ticks) in various power states (Tick)
system.mem_ctrls4.power_state.pwrStateResidencyTicks::UNDEFINED   2147483750                       # Cumulative time (in ticks) in various power states (Tick)
system.mem_ctrls40.power_state.pwrStateResidencyTicks::UNDEFINED   2147483750                       # Cumulative time (in ticks) in various power states (Tick)
system.mem_ctrls41.power_state.pwrStateResidencyTicks::UNDEFINED   2147483750                       # Cumulative time (in ticks) in various power states (Tick)
system.mem_ctrls42.power_state.pwrStateResidencyTicks::UNDEFINED   2147483750                       # Cumulative time (in ticks) in various power states (Tick)
system.mem_ctrls43.power_state.pwrStateResidencyTicks::UNDEFINED   2147483750                       # Cumulative time (in ticks) in various power states (Tick)
system.mem_ctrls44.power_state.pwrStateResidencyTicks::UNDEFINED   2147483750                       # Cumulative time (in ticks) in various power states (Tick)
system.mem_ctrls45.power_state.pwrStateResidencyTicks::UNDEFINED   2147483750                       # Cumulative time (in ticks) in various power states (Tick)
system.mem_ctrls46.power_state.pwrStateResidencyTicks::UNDEFINED   2147483750                       # Cumulative time (in ticks) in various power states (Tick)
system.mem_ctrls47.power_state.pwrStateResidencyTicks::UNDEFINED   2147483750                       # Cumulative time (in ticks) in various power states (Tick)
system.mem_ctrls48.power_state.pwrStateResidencyTicks::UNDEFINED   2147483750                       # Cumulative time (in ticks) in various power states (Tick)
system.mem_ctrls49.power_state.pwrStateResidencyTicks::UNDEFINED   2147483750                       # Cumulative time (in ticks) in various power states (Tick)
system.mem_ctrls5.power_state.pwrStateResidencyTicks::UNDEFINED   2147483750                       # Cumulative time (in ticks) in various power states (Tick)
system.mem_ctrls50.power_state.pwrStateResidencyTicks::UNDEFINED   2147483750                       # Cumulative time (in ticks) in various power states (Tick)
system.mem_ctrls51.power_state.pwrStateResidencyTicks::UNDEFINED   2147483750                       # Cumulative time (in ticks) in various power states (Tick)
system.mem_ctrls52.power_state.pwrStateResidencyTicks::UNDEFINED   2147483750                       # Cumulative time (in ticks) in various power states (Tick)
system.mem_ctrls53.power_state.pwrStateResidencyTicks::UNDEFINED   2147483750                       # Cumulative time (in ticks) in various power states (Tick)
system.mem_ctrls54.power_state.pwrStateResidencyTicks::UNDEFINED   2147483750                       # Cumulative time (in ticks) in various power states (Tick)
system.mem_ctrls55.power_state.pwrStateResidencyTicks::UNDEFINED   2147483750                       # Cumulative time (in ticks) in various power states (Tick)
system.mem_ctrls56.power_state.pwrStateResidencyTicks::UNDEFINED   2147483750                       # Cumulative time (in ticks) in various power states (Tick)
system.mem_ctrls57.power_state.pwrStateResidencyTicks::UNDEFINED   2147483750                       # Cumulative time (in ticks) in various power states (Tick)
system.mem_ctrls58.power_state.pwrStateResidencyTicks::UNDEFINED   2147483750                       # Cumulative time (in ticks) in various power states (Tick)
system.mem_ctrls59.power_state.pwrStateResidencyTicks::UNDEFINED   2147483750                       # Cumulative time (in ticks) in various power states (Tick)
system.mem_ctrls6.power_state.pwrStateResidencyTicks::UNDEFINED   2147483750                       # Cumulative time (in ticks) in various power states (Tick)
system.mem_ctrls60.power_state.pwrStateResidencyTicks::UNDEFINED   2147483750                       # Cumulative time (in ticks) in various power states (Tick)
system.mem_ctrls61.power_state.pwrStateResidencyTicks::UNDEFINED   2147483750                       # Cumulative time (in ticks) in various power states (Tick)
system.mem_ctrls62.power_state.pwrStateResidencyTicks::UNDEFINED   2147483750                       # Cumulative time (in ticks) in various power states (Tick)
system.mem_ctrls63.power_state.pwrStateResidencyTicks::UNDEFINED   2147483750                       # Cumulative time (in ticks) in various power states (Tick)
system.mem_ctrls64.power_state.pwrStateResidencyTicks::UNDEFINED   2147483750                       # Cumulative time (in ticks) in various power states (Tick)
system.mem_ctrls65.power_state.pwrStateResidencyTicks::UNDEFINED   2147483750                       # Cumulative time (in ticks) in various power states (Tick)
system.mem_ctrls66.power_state.pwrStateResidencyTicks::UNDEFINED   2147483750                       # Cumulative time (in ticks) in various power states (Tick)
system.mem_ctrls67.power_state.pwrStateResidencyTicks::UNDEFINED   2147483750                       # Cumulative time (in ticks) in various power states (Tick)
system.mem_ctrls68.power_state.pwrStateResidencyTicks::UNDEFINED   2147483750                       # Cumulative time (in ticks) in various power states (Tick)
system.mem_ctrls69.power_state.pwrStateResidencyTicks::UNDEFINED   2147483750                       # Cumulative time (in ticks) in various power states (Tick)
system.mem_ctrls7.power_state.pwrStateResidencyTicks::UNDEFINED   2147483750                       # Cumulative time (in ticks) in various power states (Tick)
system.mem_ctrls70.power_state.pwrStateResidencyTicks::UNDEFINED   2147483750                       # Cumulative time (in ticks) in various power states (Tick)
system.mem_ctrls71.power_state.pwrStateResidencyTicks::UNDEFINED   2147483750                       # Cumulative time (in ticks) in various power states (Tick)
system.mem_ctrls72.power_state.pwrStateResidencyTicks::UNDEFINED   2147483750                       # Cumulative time (in ticks) in various power states (Tick)
system.mem_ctrls73.power_state.pwrStateResidencyTicks::UNDEFINED   2147483750                       # Cumulative time (in ticks) in various power states (Tick)
system.mem_ctrls74.power_state.pwrStateResidencyTicks::UNDEFINED   2147483750                       # Cumulative time (in ticks) in various power states (Tick)
system.mem_ctrls75.power_state.pwrStateResidencyTicks::UNDEFINED   2147483750                       # Cumulative time (in ticks) in various power states (Tick)
system.mem_ctrls76.power_state.pwrStateResidencyTicks::UNDEFINED   2147483750                       # Cumulative time (in ticks) in various power states (Tick)
system.mem_ctrls77.power_state.pwrStateResidencyTicks::UNDEFINED   2147483750                       # Cumulative time (in ticks) in various power states (Tick)
system.mem_ctrls78.power_state.pwrStateResidencyTicks::UNDEFINED   2147483750                       # Cumulative time (in ticks) in various power states (Tick)
system.mem_ctrls79.power_state.pwrStateResidencyTicks::UNDEFINED   2147483750                       # Cumulative time (in ticks) in various power states (Tick)
system.mem_ctrls8.power_state.pwrStateResidencyTicks::UNDEFINED   2147483750                       # Cumulative time (in ticks) in various power states (Tick)
system.mem_ctrls80.power_state.pwrStateResidencyTicks::UNDEFINED   2147483750                       # Cumulative time (in ticks) in various power states (Tick)
system.mem_ctrls81.power_state.pwrStateResidencyTicks::UNDEFINED   2147483750                       # Cumulative time (in ticks) in various power states (Tick)
system.mem_ctrls82.power_state.pwrStateResidencyTicks::UNDEFINED   2147483750                       # Cumulative time (in ticks) in various power states (Tick)
system.mem_ctrls83.power_state.pwrStateResidencyTicks::UNDEFINED   2147483750                       # Cumulative time (in ticks) in various power states (Tick)
system.mem_ctrls84.power_state.pwrStateResidencyTicks::UNDEFINED   2147483750                       # Cumulative time (in ticks) in various power states (Tick)
system.mem_ctrls85.power_state.pwrStateResidencyTicks::UNDEFINED   2147483750                       # Cumulative time (in ticks) in various power states (Tick)
system.mem_ctrls86.power_state.pwrStateResidencyTicks::UNDEFINED   2147483750                       # Cumulative time (in ticks) in various power states (Tick)
system.mem_ctrls87.power_state.pwrStateResidencyTicks::UNDEFINED   2147483750                       # Cumulative time (in ticks) in various power states (Tick)
system.mem_ctrls88.power_state.pwrStateResidencyTicks::UNDEFINED   2147483750                       # Cumulative time (in ticks) in various power states (Tick)
system.mem_ctrls89.power_state.pwrStateResidencyTicks::UNDEFINED   2147483750                       # Cumulative time (in ticks) in various power states (Tick)
system.mem_ctrls9.power_state.pwrStateResidencyTicks::UNDEFINED   2147483750                       # Cumulative time (in ticks) in various power states (Tick)
system.mem_ctrls90.power_state.pwrStateResidencyTicks::UNDEFINED   2147483750                       # Cumulative time (in ticks) in various power states (Tick)
system.mem_ctrls91.power_state.pwrStateResidencyTicks::UNDEFINED   2147483750                       # Cumulative time (in ticks) in various power states (Tick)
system.mem_ctrls92.power_state.pwrStateResidencyTicks::UNDEFINED   2147483750                       # Cumulative time (in ticks) in various power states (Tick)
system.mem_ctrls93.power_state.pwrStateResidencyTicks::UNDEFINED   2147483750                       # Cumulative time (in ticks) in various power states (Tick)
system.mem_ctrls94.power_state.pwrStateResidencyTicks::UNDEFINED   2147483750                       # Cumulative time (in ticks) in various power states (Tick)
system.mem_ctrls95.power_state.pwrStateResidencyTicks::UNDEFINED   2147483750                       # Cumulative time (in ticks) in various power states (Tick)
system.mem_ctrls96.power_state.pwrStateResidencyTicks::UNDEFINED   2147483750                       # Cumulative time (in ticks) in various power states (Tick)
system.mem_ctrls97.power_state.pwrStateResidencyTicks::UNDEFINED   2147483750                       # Cumulative time (in ticks) in various power states (Tick)
system.mem_ctrls98.power_state.pwrStateResidencyTicks::UNDEFINED   2147483750                       # Cumulative time (in ticks) in various power states (Tick)
system.mem_ctrls99.power_state.pwrStateResidencyTicks::UNDEFINED   2147483750                       # Cumulative time (in ticks) in various power states (Tick)
system.ruby.m_outstandReqHistSeqr::bucket_size            1                       (Unspecified)
system.ruby.m_outstandReqHistSeqr::max_bucket            9                       (Unspecified)
system.ruby.m_outstandReqHistSeqr::samples      3432082                       (Unspecified)
system.ruby.m_outstandReqHistSeqr::mean             1                       (Unspecified)
system.ruby.m_outstandReqHistSeqr::gmean            1                       (Unspecified)
system.ruby.m_outstandReqHistSeqr        |           0      0.00%      0.00% |     3432082    100.00%    100.00% |           0      0.00%    100.00% |           0      0.00%    100.00% |           0      0.00%    100.00% |           0      0.00%    100.00% |           0      0.00%    100.00% |           0      0.00%    100.00% |           0      0.00%    100.00% |           0      0.00%    100.00% (Unspecified)
system.ruby.m_outstandReqHistSeqr::total      3432082                       (Unspecified)
system.ruby.m_latencyHistSeqr::bucket_size            1                       (Unspecified)
system.ruby.m_latencyHistSeqr::max_bucket            9                       (Unspecified)
system.ruby.m_latencyHistSeqr::samples        3432082                       (Unspecified)
system.ruby.m_latencyHistSeqr::mean                 1                       (Unspecified)
system.ruby.m_latencyHistSeqr::gmean                1                       (Unspecified)
system.ruby.m_latencyHistSeqr            |           0      0.00%      0.00% |     3432082    100.00%    100.00% |           0      0.00%    100.00% |           0      0.00%    100.00% |           0      0.00%    100.00% |           0      0.00%    100.00% |           0      0.00%    100.00% |           0      0.00%    100.00% |           0      0.00%    100.00% |           0      0.00%    100.00% (Unspecified)
system.ruby.m_latencyHistSeqr::total          3432082                       (Unspecified)
system.ruby.m_hitLatencyHistSeqr::bucket_size            1                       (Unspecified)
system.ruby.m_hitLatencyHistSeqr::max_bucket            9                       (Unspecified)
system.ruby.m_hitLatencyHistSeqr::samples      3432082                       (Unspecified)
system.ruby.m_hitLatencyHistSeqr::mean              1                       (Unspecified)
system.ruby.m_hitLatencyHistSeqr::gmean             1                       (Unspecified)
system.ruby.m_hitLatencyHistSeqr         |           0      0.00%      0.00% |     3432082    100.00%    100.00% |           0      0.00%    100.00% |           0      0.00%    100.00% |           0      0.00%    100.00% |           0      0.00%    100.00% |           0      0.00%    100.00% |           0      0.00%    100.00% |           0      0.00%    100.00% |           0      0.00%    100.00% (Unspecified)
system.ruby.m_hitLatencyHistSeqr::total       3432082                       (Unspecified)
system.ruby.Directory_Controller.Receive_Request |       10661      0.62%      0.62% |       10769      0.63%      1.25% |       10727      0.63%      1.87% |       10715      0.62%      2.50% |       10797      0.63%      3.13% |       10818      0.63%      3.76% |       10704      0.62%      4.38% |       10785      0.63%      5.01% |       10640      0.62%      5.63% |       10711      0.62%      6.26% |       10609      0.62%      6.87% |       10606      0.62%      7.49% |       10840      0.63%      8.13% |       10642      0.62%      8.75% |       10611      0.62%      9.36% |       10779      0.63%      9.99% |       10798      0.63%     10.62% |       10665      0.62%     11.24% |       10831      0.63%     11.87% |       10763      0.63%     12.50% |       10844      0.63%     13.13% |       10754      0.63%     13.76% |       10849      0.63%     14.39% |       10853      0.63%     15.03% |       10672      0.62%     15.65% |       10797      0.63%     16.28% |       10852      0.63%     16.91% |       10707      0.62%     17.53% |       10879      0.63%     18.17% |       10537      0.61%     18.78% |       10697      0.62%     19.41% |       10867      0.63%     20.04% |       10871      0.63%     20.67% |       10800      0.63%     21.30% |       10734      0.63%     21.93% |       10740      0.63%     22.56% |       10820      0.63%     23.19% |       10829      0.63%     23.82% |       10620      0.62%     24.44% |       10784      0.63%     25.06% |       10788      0.63%     25.69% |       10791      0.63%     26.32% |       10519      0.61%     26.94% |       10743      0.63%     27.56% |       10670      0.62%     28.18% |       10742      0.63%     28.81% |       10687      0.62%     29.43% |       10842      0.63%     30.07% |       10672      0.62%     30.69% |       10733      0.63%     31.31% |       10704      0.62%     31.94% |       10888      0.63%     32.57% |       10699      0.62%     33.20% |       10627      0.62%     33.82% |       10608      0.62%     34.43% |       10589      0.62%     35.05% |       10683      0.62%     35.67% |       10488      0.61%     36.28% |       10595      0.62%     36.90% |       10655      0.62%     37.52% |       10737      0.63%     38.15% |       10613      0.62%     38.77% |       10639      0.62%     39.39% |       10788      0.63%     40.02% |       10582      0.62%     40.63% |       10792      0.63%     41.26% |       10809      0.63%     41.89% |       10844      0.63%     42.53% |       10620      0.62%     43.14% |       10684      0.62%     43.77% |       10679      0.62%     44.39% |       10712      0.62%     45.01% |       10828      0.63%     45.65% |       10844      0.63%     46.28% |       10672      0.62%     46.90% |       10750      0.63%     47.53% |       10793      0.63%     48.16% |       10621      0.62%     48.77% |       10707      0.62%     49.40% |       10743      0.63%     50.03% |       10681      0.62%     50.65% |       10680      0.62%     51.27% |       10576      0.62%     51.89% |       10695      0.62%     52.51% |       10904      0.64%     53.15% |       10758      0.63%     53.77% |       10823      0.63%     54.40% |       10721      0.62%     55.03% |       10953      0.64%     55.67% |       10643      0.62%     56.29% |       10778      0.63%     56.92% |       10715      0.62%     57.54% |       10728      0.63%     58.17% |       10699      0.62%     58.79% |       10846      0.63%     59.42% |       10686      0.62%     60.04% |       10565      0.62%     60.66% |       10601      0.62%     61.28% |       10715      0.62%     61.90% |       10701      0.62%     62.53% |       10839      0.63%     63.16% |       10775      0.63%     63.79% |       10711      0.62%     64.41% |       10840      0.63%     65.04% |       10767      0.63%     65.67% |       10660      0.62%     66.29% |       10683      0.62%     66.92% |       10429      0.61%     67.52% |       10598      0.62%     68.14% |       10773      0.63%     68.77% |       10668      0.62%     69.39% |       10737      0.63%     70.02% |       10751      0.63%     70.64% |       10694      0.62%     71.27% |       10714      0.62%     71.89% |       10674      0.62%     72.51% |       10706      0.62%     73.14% |       10729      0.63%     73.76% |       10683      0.62%     74.39% |       10777      0.63%     75.01% |       10503      0.61%     75.63% |       10811      0.63%     76.26% |       10674      0.62%     76.88% |       10692      0.62%     77.50% |       10748      0.63%     78.13% |       10791      0.63%     78.76% |       10821      0.63%     79.39% |       10681      0.62%     80.01% |       10799      0.63%     80.64% |       10788      0.63%     81.27% |       10533      0.61%     81.88% |       10666      0.62%     82.51% |       10707      0.62%     83.13% |       10660      0.62%     83.75% |       10579      0.62%     84.37% |       10781      0.63%     85.00% |       10486      0.61%     85.61% |       10774      0.63%     86.24% |       10669      0.62%     86.86% |       10529      0.61%     87.47% |       10806      0.63%     88.10% |       10756      0.63%     88.73% |       10575      0.62%     89.34% |       10623      0.62%     89.96% |       10723      0.63%     90.59% |       10763      0.63%     91.22% |       10712      0.62%     91.84% |       10751      0.63%     92.47% |       10702      0.62%     93.09% |       10732      0.63%     93.72% |       10659      0.62%     94.34% |       10678      0.62%     94.96% |       10800      0.63%     95.59% |       10860      0.63%     96.22% |       10897      0.64%     96.86% |       10764      0.63%     97.49% |       10757      0.63%     98.11% |       10973      0.64%     98.75% |       10746      0.63%     99.38% |       10653      0.62%    100.00% (Unspecified)
system.ruby.Directory_Controller.Receive_Request::total      1715455                       (Unspecified)
system.ruby.Directory_Controller.Receive_Response |       10750      0.63%      0.63% |       10456      0.61%      1.24% |       10951      0.64%      1.87% |       10857      0.63%      2.51% |       10821      0.63%      3.14% |       10626      0.62%      3.76% |       10618      0.62%      4.37% |       10823      0.63%      5.00% |       10761      0.63%      5.63% |       10897      0.63%      6.27% |       10878      0.63%      6.90% |       10842      0.63%      7.53% |       10582      0.62%      8.15% |       10815      0.63%      8.78% |       10761      0.63%      9.40% |       10667      0.62%     10.03% |       10760      0.63%     10.65% |       10552      0.61%     11.27% |       10757      0.63%     11.89% |       10572      0.62%     12.51% |       10743      0.63%     13.14% |       10751      0.63%     13.76% |       10814      0.63%     14.39% |       10865      0.63%     15.02% |       10779      0.63%     15.65% |       10636      0.62%     16.27% |       10662      0.62%     16.89% |       10659      0.62%     17.51% |       10642      0.62%     18.13% |       10671      0.62%     18.76% |       10770      0.63%     19.38% |       10694      0.62%     20.01% |       10615      0.62%     20.62% |       10790      0.63%     21.25% |       10720      0.62%     21.88% |       10663      0.62%     22.50% |       10739      0.63%     23.12% |       10869      0.63%     23.76% |       10736      0.63%     24.38% |       10844      0.63%     25.01% |       10633      0.62%     25.63% |       10777      0.63%     26.26% |       10686      0.62%     26.88% |       10705      0.62%     27.51% |       10899      0.63%     28.14% |       10712      0.62%     28.77% |       10837      0.63%     29.40% |       10622      0.62%     30.02% |       10791      0.63%     30.65% |       10654      0.62%     31.27% |       10686      0.62%     31.89% |       10629      0.62%     32.51% |       10622      0.62%     33.13% |       10582      0.62%     33.74% |       10622      0.62%     34.36% |       10793      0.63%     34.99% |       10682      0.62%     35.61% |       10524      0.61%     36.23% |       10799      0.63%     36.86% |       10856      0.63%     37.49% |       10760      0.63%     38.11% |       10653      0.62%     38.73% |       10699      0.62%     39.36% |       10903      0.64%     39.99% |       10710      0.62%     40.62% |       10666      0.62%     41.24% |       10682      0.62%     41.86% |       10761      0.63%     42.49% |       10670      0.62%     43.11% |       10643      0.62%     43.73% |       10844      0.63%     44.36% |       10576      0.62%     44.98% |       10752      0.63%     45.60% |       10753      0.63%     46.23% |       10770      0.63%     46.86% |       10859      0.63%     47.49% |       10634      0.62%     48.11% |       10683      0.62%     48.73% |       10650      0.62%     49.35% |       10514      0.61%     49.96% |       10800      0.63%     50.59% |       10748      0.63%     51.22% |       10773      0.63%     51.85% |       10582      0.62%     52.46% |       10623      0.62%     53.08% |       10910      0.64%     53.72% |       10927      0.64%     54.35% |       10847      0.63%     54.99% |       10886      0.63%     55.62% |       10918      0.64%     56.26% |       10698      0.62%     56.88% |       10704      0.62%     57.50% |       10796      0.63%     58.13% |       10655      0.62%     58.75% |       10714      0.62%     59.38% |       10732      0.63%     60.00% |       10789      0.63%     60.63% |       10587      0.62%     61.25% |       10842      0.63%     61.88% |       10778      0.63%     62.51% |       10643      0.62%     63.13% |       10883      0.63%     63.76% |       10752      0.63%     64.39% |       10673      0.62%     65.01% |       10731      0.63%     65.63% |       10642      0.62%     66.25% |       10767      0.63%     66.88% |       10706      0.62%     67.51% |       10848      0.63%     68.14% |       10741      0.63%     68.76% |       10736      0.63%     69.39% |       10627      0.62%     70.01% |       10848      0.63%     70.64% |       10705      0.62%     71.26% |       10712      0.62%     71.89% |       10663      0.62%     72.51% |       10729      0.63%     73.13% |       10722      0.62%     73.76% |       10644      0.62%     74.38% |       10567      0.62%     74.99% |       10763      0.63%     75.62% |       10793      0.63%     76.25% |       10784      0.63%     76.88% |       10709      0.62%     77.50% |       10613      0.62%     78.12% |       10715      0.62%     78.74% |       10700      0.62%     79.37% |       10769      0.63%     79.99% |       10982      0.64%     80.63% |       10845      0.63%     81.27% |       10762      0.63%     81.89% |       10493      0.61%     82.50% |       10666      0.62%     83.13% |       10846      0.63%     83.76% |       10553      0.61%     84.37% |       10729      0.63%     85.00% |       10723      0.62%     85.62% |       10621      0.62%     86.24% |       10694      0.62%     86.86% |       10616      0.62%     87.48% |       10502      0.61%     88.09% |       10750      0.63%     88.72% |       10732      0.63%     89.34% |       10744      0.63%     89.97% |       10628      0.62%     90.59% |       10716      0.62%     91.21% |       10806      0.63%     91.84% |       10858      0.63%     92.48% |       10577      0.62%     93.09% |       10719      0.62%     93.72% |       10783      0.63%     94.34% |       10891      0.63%     94.98% |       10609      0.62%     95.60% |       10794      0.63%     96.23% |       10887      0.63%     96.86% |       10754      0.63%     97.49% |       10768      0.63%     98.11% |       10855      0.63%     98.75% |       10757      0.63%     99.37% |       10766      0.63%    100.00% (Unspecified)
system.ruby.Directory_Controller.Receive_Response::total      1716621                       (Unspecified)
system.ruby.Directory_Controller.I.Receive_Request |       10661      0.62%      0.62% |       10769      0.63%      1.25% |       10727      0.63%      1.87% |       10715      0.62%      2.50% |       10797      0.63%      3.13% |       10818      0.63%      3.76% |       10704      0.62%      4.38% |       10785      0.63%      5.01% |       10640      0.62%      5.63% |       10711      0.62%      6.26% |       10609      0.62%      6.87% |       10606      0.62%      7.49% |       10840      0.63%      8.13% |       10642      0.62%      8.75% |       10611      0.62%      9.36% |       10779      0.63%      9.99% |       10798      0.63%     10.62% |       10665      0.62%     11.24% |       10831      0.63%     11.87% |       10763      0.63%     12.50% |       10844      0.63%     13.13% |       10754      0.63%     13.76% |       10849      0.63%     14.39% |       10853      0.63%     15.03% |       10672      0.62%     15.65% |       10797      0.63%     16.28% |       10852      0.63%     16.91% |       10707      0.62%     17.53% |       10879      0.63%     18.17% |       10537      0.61%     18.78% |       10697      0.62%     19.41% |       10867      0.63%     20.04% |       10871      0.63%     20.67% |       10800      0.63%     21.30% |       10734      0.63%     21.93% |       10740      0.63%     22.56% |       10820      0.63%     23.19% |       10829      0.63%     23.82% |       10620      0.62%     24.44% |       10784      0.63%     25.06% |       10788      0.63%     25.69% |       10791      0.63%     26.32% |       10519      0.61%     26.94% |       10743      0.63%     27.56% |       10670      0.62%     28.18% |       10742      0.63%     28.81% |       10687      0.62%     29.43% |       10842      0.63%     30.07% |       10672      0.62%     30.69% |       10733      0.63%     31.31% |       10704      0.62%     31.94% |       10888      0.63%     32.57% |       10699      0.62%     33.20% |       10627      0.62%     33.82% |       10608      0.62%     34.43% |       10589      0.62%     35.05% |       10683      0.62%     35.67% |       10488      0.61%     36.28% |       10595      0.62%     36.90% |       10655      0.62%     37.52% |       10737      0.63%     38.15% |       10613      0.62%     38.77% |       10639      0.62%     39.39% |       10788      0.63%     40.02% |       10582      0.62%     40.63% |       10792      0.63%     41.26% |       10809      0.63%     41.89% |       10844      0.63%     42.53% |       10620      0.62%     43.14% |       10684      0.62%     43.77% |       10679      0.62%     44.39% |       10712      0.62%     45.01% |       10828      0.63%     45.65% |       10844      0.63%     46.28% |       10672      0.62%     46.90% |       10750      0.63%     47.53% |       10793      0.63%     48.16% |       10621      0.62%     48.77% |       10707      0.62%     49.40% |       10743      0.63%     50.03% |       10681      0.62%     50.65% |       10680      0.62%     51.27% |       10576      0.62%     51.89% |       10695      0.62%     52.51% |       10904      0.64%     53.15% |       10758      0.63%     53.77% |       10823      0.63%     54.40% |       10721      0.62%     55.03% |       10953      0.64%     55.67% |       10643      0.62%     56.29% |       10778      0.63%     56.92% |       10715      0.62%     57.54% |       10728      0.63%     58.17% |       10699      0.62%     58.79% |       10846      0.63%     59.42% |       10686      0.62%     60.04% |       10565      0.62%     60.66% |       10601      0.62%     61.28% |       10715      0.62%     61.90% |       10701      0.62%     62.53% |       10839      0.63%     63.16% |       10775      0.63%     63.79% |       10711      0.62%     64.41% |       10840      0.63%     65.04% |       10767      0.63%     65.67% |       10660      0.62%     66.29% |       10683      0.62%     66.92% |       10429      0.61%     67.52% |       10598      0.62%     68.14% |       10773      0.63%     68.77% |       10668      0.62%     69.39% |       10737      0.63%     70.02% |       10751      0.63%     70.64% |       10694      0.62%     71.27% |       10714      0.62%     71.89% |       10674      0.62%     72.51% |       10706      0.62%     73.14% |       10729      0.63%     73.76% |       10683      0.62%     74.39% |       10777      0.63%     75.01% |       10503      0.61%     75.63% |       10811      0.63%     76.26% |       10674      0.62%     76.88% |       10692      0.62%     77.50% |       10748      0.63%     78.13% |       10791      0.63%     78.76% |       10821      0.63%     79.39% |       10681      0.62%     80.01% |       10799      0.63%     80.64% |       10788      0.63%     81.27% |       10533      0.61%     81.88% |       10666      0.62%     82.51% |       10707      0.62%     83.13% |       10660      0.62%     83.75% |       10579      0.62%     84.37% |       10781      0.63%     85.00% |       10486      0.61%     85.61% |       10774      0.63%     86.24% |       10669      0.62%     86.86% |       10529      0.61%     87.47% |       10806      0.63%     88.10% |       10756      0.63%     88.73% |       10575      0.62%     89.34% |       10623      0.62%     89.96% |       10723      0.63%     90.59% |       10763      0.63%     91.22% |       10712      0.62%     91.84% |       10751      0.63%     92.47% |       10702      0.62%     93.09% |       10732      0.63%     93.72% |       10659      0.62%     94.34% |       10678      0.62%     94.96% |       10800      0.63%     95.59% |       10860      0.63%     96.22% |       10897      0.64%     96.86% |       10764      0.63%     97.49% |       10757      0.63%     98.11% |       10973      0.64%     98.75% |       10746      0.63%     99.38% |       10653      0.62%    100.00% (Unspecified)
system.ruby.Directory_Controller.I.Receive_Request::total      1715455                       (Unspecified)
system.ruby.Directory_Controller.I.Receive_Response |       10750      0.63%      0.63% |       10456      0.61%      1.24% |       10951      0.64%      1.87% |       10857      0.63%      2.51% |       10821      0.63%      3.14% |       10626      0.62%      3.76% |       10618      0.62%      4.37% |       10823      0.63%      5.00% |       10761      0.63%      5.63% |       10897      0.63%      6.27% |       10878      0.63%      6.90% |       10842      0.63%      7.53% |       10582      0.62%      8.15% |       10815      0.63%      8.78% |       10761      0.63%      9.40% |       10667      0.62%     10.03% |       10760      0.63%     10.65% |       10552      0.61%     11.27% |       10757      0.63%     11.89% |       10572      0.62%     12.51% |       10743      0.63%     13.14% |       10751      0.63%     13.76% |       10814      0.63%     14.39% |       10865      0.63%     15.02% |       10779      0.63%     15.65% |       10636      0.62%     16.27% |       10662      0.62%     16.89% |       10659      0.62%     17.51% |       10642      0.62%     18.13% |       10671      0.62%     18.76% |       10770      0.63%     19.38% |       10694      0.62%     20.01% |       10615      0.62%     20.62% |       10790      0.63%     21.25% |       10720      0.62%     21.88% |       10663      0.62%     22.50% |       10739      0.63%     23.12% |       10869      0.63%     23.76% |       10736      0.63%     24.38% |       10844      0.63%     25.01% |       10633      0.62%     25.63% |       10777      0.63%     26.26% |       10686      0.62%     26.88% |       10705      0.62%     27.51% |       10899      0.63%     28.14% |       10712      0.62%     28.77% |       10837      0.63%     29.40% |       10622      0.62%     30.02% |       10791      0.63%     30.65% |       10654      0.62%     31.27% |       10686      0.62%     31.89% |       10629      0.62%     32.51% |       10622      0.62%     33.13% |       10582      0.62%     33.74% |       10622      0.62%     34.36% |       10793      0.63%     34.99% |       10682      0.62%     35.61% |       10524      0.61%     36.23% |       10799      0.63%     36.86% |       10856      0.63%     37.49% |       10760      0.63%     38.11% |       10653      0.62%     38.73% |       10699      0.62%     39.36% |       10903      0.64%     39.99% |       10710      0.62%     40.62% |       10666      0.62%     41.24% |       10682      0.62%     41.86% |       10761      0.63%     42.49% |       10670      0.62%     43.11% |       10643      0.62%     43.73% |       10844      0.63%     44.36% |       10576      0.62%     44.98% |       10752      0.63%     45.60% |       10753      0.63%     46.23% |       10770      0.63%     46.86% |       10859      0.63%     47.49% |       10634      0.62%     48.11% |       10683      0.62%     48.73% |       10650      0.62%     49.35% |       10514      0.61%     49.96% |       10800      0.63%     50.59% |       10748      0.63%     51.22% |       10773      0.63%     51.85% |       10582      0.62%     52.46% |       10623      0.62%     53.08% |       10910      0.64%     53.72% |       10927      0.64%     54.35% |       10847      0.63%     54.99% |       10886      0.63%     55.62% |       10918      0.64%     56.26% |       10698      0.62%     56.88% |       10704      0.62%     57.50% |       10796      0.63%     58.13% |       10655      0.62%     58.75% |       10714      0.62%     59.38% |       10732      0.63%     60.00% |       10789      0.63%     60.63% |       10587      0.62%     61.25% |       10842      0.63%     61.88% |       10778      0.63%     62.51% |       10643      0.62%     63.13% |       10883      0.63%     63.76% |       10752      0.63%     64.39% |       10673      0.62%     65.01% |       10731      0.63%     65.63% |       10642      0.62%     66.25% |       10767      0.63%     66.88% |       10706      0.62%     67.51% |       10848      0.63%     68.14% |       10741      0.63%     68.76% |       10736      0.63%     69.39% |       10627      0.62%     70.01% |       10848      0.63%     70.64% |       10705      0.62%     71.26% |       10712      0.62%     71.89% |       10663      0.62%     72.51% |       10729      0.63%     73.13% |       10722      0.62%     73.76% |       10644      0.62%     74.38% |       10567      0.62%     74.99% |       10763      0.63%     75.62% |       10793      0.63%     76.25% |       10784      0.63%     76.88% |       10709      0.62%     77.50% |       10613      0.62%     78.12% |       10715      0.62%     78.74% |       10700      0.62%     79.37% |       10769      0.63%     79.99% |       10982      0.64%     80.63% |       10845      0.63%     81.27% |       10762      0.63%     81.89% |       10493      0.61%     82.50% |       10666      0.62%     83.13% |       10846      0.63%     83.76% |       10553      0.61%     84.37% |       10729      0.63%     85.00% |       10723      0.62%     85.62% |       10621      0.62%     86.24% |       10694      0.62%     86.86% |       10616      0.62%     87.48% |       10502      0.61%     88.09% |       10750      0.63%     88.72% |       10732      0.63%     89.34% |       10744      0.63%     89.97% |       10628      0.62%     90.59% |       10716      0.62%     91.21% |       10806      0.63%     91.84% |       10858      0.63%     92.48% |       10577      0.62%     93.09% |       10719      0.62%     93.72% |       10783      0.63%     94.34% |       10891      0.63%     94.98% |       10609      0.62%     95.60% |       10794      0.63%     96.23% |       10887      0.63%     96.86% |       10754      0.63%     97.49% |       10768      0.63%     98.11% |       10855      0.63%     98.75% |       10757      0.63%     99.37% |       10766      0.63%    100.00% (Unspecified)
system.ruby.Directory_Controller.I.Receive_Response::total      1716621                       (Unspecified)
system.ruby.L1Cache_Controller.Request   |       43270      2.52%      2.52% |       42982      2.51%      5.03% |       43313      2.52%      7.55% |       43113      2.51%     10.07% |       42937      2.50%     12.57% |       42678      2.49%     15.06% |       42763      2.49%     17.55% |       42650      2.49%     20.04% |       42506      2.48%     22.51% |       42771      2.49%     25.01% |       42780      2.49%     27.50% |       42674      2.49%     29.99% |       42727      2.49%     32.48% |       42752      2.49%     34.97% |       42788      2.49%     37.47% |       42730      2.49%     39.96% |       42879      2.50%     42.46% |       43143      2.51%     44.97% |       42910      2.50%     47.47% |       42769      2.49%     49.97% |       42995      2.51%     52.47% |       43007      2.51%     54.98% |       42883      2.50%     57.48% |       42905      2.50%     59.98% |       43257      2.52%     62.50% |       42601      2.48%     64.98% |       42919      2.50%     67.49% |       43100      2.51%     70.00% |       42786      2.49%     72.49% |       43242      2.52%     75.01% |       42806      2.50%     77.51% |       43005      2.51%     80.02% |       42735      2.49%     82.51% |       42823      2.50%     85.00% |       42823      2.50%     87.50% |       43113      2.51%     90.01% |       42707      2.49%     92.50% |       42986      2.51%     95.01% |       42838      2.50%     97.51% |       42793      2.49%    100.00% (Unspecified)
system.ruby.L1Cache_Controller.Request::total      1715459                       (Unspecified)
system.ruby.L1Cache_Controller.Response  |       42883      2.50%      2.50% |       43214      2.52%      5.02% |       42933      2.50%      7.52% |       43189      2.52%     10.03% |       42745      2.49%     12.52% |       42653      2.48%     15.01% |       43039      2.51%     17.51% |       42679      2.49%     20.00% |       42985      2.50%     22.50% |       43214      2.52%     25.02% |       42704      2.49%     27.51% |       42859      2.50%     30.01% |       42776      2.49%     32.50% |       42588      2.48%     34.98% |       43070      2.51%     37.49% |       42908      2.50%     39.99% |       43144      2.51%     42.50% |       42736      2.49%     44.99% |       42831      2.50%     47.49% |       42853      2.50%     49.98% |       42527      2.48%     52.46% |       43040      2.51%     54.97% |       43147      2.51%     57.48% |       42784      2.49%     59.97% |       42978      2.50%     62.48% |       42939      2.50%     64.98% |       42709      2.49%     67.47% |       42945      2.50%     69.97% |       42988      2.50%     72.47% |       42965      2.50%     74.97% |       42966      2.50%     77.48% |       43165      2.51%     79.99% |       42603      2.48%     82.47% |       42973      2.50%     84.98% |       42905      2.50%     87.48% |       43165      2.51%     89.99% |       42631      2.48%     92.47% |       42986      2.50%     94.98% |       43201      2.52%     97.49% |       43003      2.51%    100.00% (Unspecified)
system.ruby.L1Cache_Controller.Response::total      1716623                       (Unspecified)
system.ruby.L1Cache_Controller.I.Request |       43270      2.52%      2.52% |       42982      2.51%      5.03% |       43313      2.52%      7.55% |       43113      2.51%     10.07% |       42937      2.50%     12.57% |       42678      2.49%     15.06% |       42763      2.49%     17.55% |       42650      2.49%     20.04% |       42506      2.48%     22.51% |       42771      2.49%     25.01% |       42780      2.49%     27.50% |       42674      2.49%     29.99% |       42727      2.49%     32.48% |       42752      2.49%     34.97% |       42788      2.49%     37.47% |       42730      2.49%     39.96% |       42879      2.50%     42.46% |       43143      2.51%     44.97% |       42910      2.50%     47.47% |       42769      2.49%     49.97% |       42995      2.51%     52.47% |       43007      2.51%     54.98% |       42883      2.50%     57.48% |       42905      2.50%     59.98% |       43257      2.52%     62.50% |       42601      2.48%     64.98% |       42919      2.50%     67.49% |       43100      2.51%     70.00% |       42786      2.49%     72.49% |       43242      2.52%     75.01% |       42806      2.50%     77.51% |       43005      2.51%     80.02% |       42735      2.49%     82.51% |       42823      2.50%     85.00% |       42823      2.50%     87.50% |       43113      2.51%     90.01% |       42707      2.49%     92.50% |       42986      2.51%     95.01% |       42838      2.50%     97.51% |       42793      2.49%    100.00% (Unspecified)
system.ruby.L1Cache_Controller.I.Request::total      1715459                       (Unspecified)
system.ruby.L1Cache_Controller.I.Response |       42883      2.50%      2.50% |       43214      2.52%      5.02% |       42933      2.50%      7.52% |       43189      2.52%     10.03% |       42745      2.49%     12.52% |       42653      2.48%     15.01% |       43039      2.51%     17.51% |       42679      2.49%     20.00% |       42985      2.50%     22.50% |       43214      2.52%     25.02% |       42704      2.49%     27.51% |       42859      2.50%     30.01% |       42776      2.49%     32.50% |       42588      2.48%     34.98% |       43070      2.51%     37.49% |       42908      2.50%     39.99% |       43144      2.51%     42.50% |       42736      2.49%     44.99% |       42831      2.50%     47.49% |       42853      2.50%     49.98% |       42527      2.48%     52.46% |       43040      2.51%     54.97% |       43147      2.51%     57.48% |       42784      2.49%     59.97% |       42978      2.50%     62.48% |       42939      2.50%     64.98% |       42709      2.49%     67.47% |       42945      2.50%     69.97% |       42988      2.50%     72.47% |       42965      2.50%     74.97% |       42966      2.50%     77.48% |       43165      2.51%     79.99% |       42603      2.48%     82.47% |       42973      2.50%     84.98% |       42905      2.50%     87.48% |       43165      2.51%     89.99% |       42631      2.48%     92.47% |       42986      2.50%     94.98% |       43201      2.52%     97.49% |       43003      2.51%    100.00% (Unspecified)
system.ruby.L1Cache_Controller.I.Response::total      1716623                       (Unspecified)
system.ruby.RequestType.LD.latency_hist_seqr::bucket_size            1                       (Unspecified)
system.ruby.RequestType.LD.latency_hist_seqr::max_bucket            9                       (Unspecified)
system.ruby.RequestType.LD.latency_hist_seqr::samples      1715459                       (Unspecified)
system.ruby.RequestType.LD.latency_hist_seqr::mean            1                       (Unspecified)
system.ruby.RequestType.LD.latency_hist_seqr::gmean            1                       (Unspecified)
system.ruby.RequestType.LD.latency_hist_seqr |           0      0.00%      0.00% |     1715459    100.00%    100.00% |           0      0.00%    100.00% |           0      0.00%    100.00% |           0      0.00%    100.00% |           0      0.00%    100.00% |           0      0.00%    100.00% |           0      0.00%    100.00% |           0      0.00%    100.00% |           0      0.00%    100.00% (Unspecified)
system.ruby.RequestType.LD.latency_hist_seqr::total      1715459                       (Unspecified)
system.ruby.RequestType.LD.hit_latency_hist_seqr::bucket_size            1                       (Unspecified)
system.ruby.RequestType.LD.hit_latency_hist_seqr::max_bucket            9                       (Unspecified)
system.ruby.RequestType.LD.hit_latency_hist_seqr::samples      1715459                       (Unspecified)
system.ruby.RequestType.LD.hit_latency_hist_seqr::mean            1                       (Unspecified)
system.ruby.RequestType.LD.hit_latency_hist_seqr::gmean            1                       (Unspecified)
system.ruby.RequestType.LD.hit_latency_hist_seqr |           0      0.00%      0.00% |     1715459    100.00%    100.00% |           0      0.00%    100.00% |           0      0.00%    100.00% |           0      0.00%    100.00% |           0      0.00%    100.00% |           0      0.00%    100.00% |           0      0.00%    100.00% |           0      0.00%    100.00% |           0      0.00%    100.00% (Unspecified)
system.ruby.RequestType.LD.hit_latency_hist_seqr::total      1715459                       (Unspecified)
system.ruby.RequestType.ST.latency_hist_seqr::bucket_size            1                       (Unspecified)
system.ruby.RequestType.ST.latency_hist_seqr::max_bucket            9                       (Unspecified)
system.ruby.RequestType.ST.latency_hist_seqr::samples      1716623                       (Unspecified)
system.ruby.RequestType.ST.latency_hist_seqr::mean            1                       (Unspecified)
system.ruby.RequestType.ST.latency_hist_seqr::gmean            1                       (Unspecified)
system.ruby.RequestType.ST.latency_hist_seqr |           0      0.00%      0.00% |     1716623    100.00%    100.00% |           0      0.00%    100.00% |           0      0.00%    100.00% |           0      0.00%    100.00% |           0      0.00%    100.00% |           0      0.00%    100.00% |           0      0.00%    100.00% |           0      0.00%    100.00% |           0      0.00%    100.00% (Unspecified)
system.ruby.RequestType.ST.latency_hist_seqr::total      1716623                       (Unspecified)
system.ruby.RequestType.ST.hit_latency_hist_seqr::bucket_size            1                       (Unspecified)
system.ruby.RequestType.ST.hit_latency_hist_seqr::max_bucket            9                       (Unspecified)
system.ruby.RequestType.ST.hit_latency_hist_seqr::samples      1716623                       (Unspecified)
system.ruby.RequestType.ST.hit_latency_hist_seqr::mean            1                       (Unspecified)
system.ruby.RequestType.ST.hit_latency_hist_seqr::gmean            1                       (Unspecified)
system.ruby.RequestType.ST.hit_latency_hist_seqr |           0      0.00%      0.00% |     1716623    100.00%    100.00% |           0      0.00%    100.00% |           0      0.00%    100.00% |           0      0.00%    100.00% |           0      0.00%    100.00% |           0      0.00%    100.00% |           0      0.00%    100.00% |           0      0.00%    100.00% |           0      0.00%    100.00% (Unspecified)
system.ruby.RequestType.ST.hit_latency_hist_seqr::total      1716623                       (Unspecified)
system.ruby.clk_domain.clock                      250                       # Clock period in ticks (Tick)
system.ruby.dir_cntrl0.power_state.pwrStateResidencyTicks::UNDEFINED   2147483750                       # Cumulative time (in ticks) in various power states (Tick)
system.ruby.dir_cntrl0.requestToDir.m_msg_count        10661                       # Number of messages passed the buffer (Count)
system.ruby.dir_cntrl0.requestToDir.m_buf_msgs     0.001241                       # Average number of messages in buffer ((Count/Tick))
system.ruby.dir_cntrl0.responseToDir.m_msg_count        10750                       # Number of messages passed the buffer (Count)
system.ruby.dir_cntrl0.responseToDir.m_buf_msgs     0.001251                       # Average number of messages in buffer ((Count/Tick))
system.ruby.dir_cntrl1.power_state.pwrStateResidencyTicks::UNDEFINED   2147483750                       # Cumulative time (in ticks) in various power states (Tick)
system.ruby.dir_cntrl1.requestToDir.m_msg_count        10769                       # Number of messages passed the buffer (Count)
system.ruby.dir_cntrl1.requestToDir.m_buf_msgs     0.001254                       # Average number of messages in buffer ((Count/Tick))
system.ruby.dir_cntrl1.responseToDir.m_msg_count        10456                       # Number of messages passed the buffer (Count)
system.ruby.dir_cntrl1.responseToDir.m_buf_msgs     0.001217                       # Average number of messages in buffer ((Count/Tick))
system.ruby.dir_cntrl10.power_state.pwrStateResidencyTicks::UNDEFINED   2147483750                       # Cumulative time (in ticks) in various power states (Tick)
system.ruby.dir_cntrl10.requestToDir.m_msg_count        10609                       # Number of messages passed the buffer (Count)
system.ruby.dir_cntrl10.requestToDir.m_buf_msgs     0.001235                       # Average number of messages in buffer ((Count/Tick))
system.ruby.dir_cntrl10.responseToDir.m_msg_count        10878                       # Number of messages passed the buffer (Count)
system.ruby.dir_cntrl10.responseToDir.m_buf_msgs     0.001266                       # Average number of messages in buffer ((Count/Tick))
system.ruby.dir_cntrl100.power_state.pwrStateResidencyTicks::UNDEFINED   2147483750                       # Cumulative time (in ticks) in various power states (Tick)
system.ruby.dir_cntrl100.requestToDir.m_msg_count        10839                       # Number of messages passed the buffer (Count)
system.ruby.dir_cntrl100.requestToDir.m_buf_msgs     0.001262                       # Average number of messages in buffer ((Count/Tick))
system.ruby.dir_cntrl100.responseToDir.m_msg_count        10643                       # Number of messages passed the buffer (Count)
system.ruby.dir_cntrl100.responseToDir.m_buf_msgs     0.001239                       # Average number of messages in buffer ((Count/Tick))
system.ruby.dir_cntrl101.power_state.pwrStateResidencyTicks::UNDEFINED   2147483750                       # Cumulative time (in ticks) in various power states (Tick)
system.ruby.dir_cntrl101.requestToDir.m_msg_count        10775                       # Number of messages passed the buffer (Count)
system.ruby.dir_cntrl101.requestToDir.m_buf_msgs     0.001254                       # Average number of messages in buffer ((Count/Tick))
system.ruby.dir_cntrl101.responseToDir.m_msg_count        10883                       # Number of messages passed the buffer (Count)
system.ruby.dir_cntrl101.responseToDir.m_buf_msgs     0.001267                       # Average number of messages in buffer ((Count/Tick))
system.ruby.dir_cntrl102.power_state.pwrStateResidencyTicks::UNDEFINED   2147483750                       # Cumulative time (in ticks) in various power states (Tick)
system.ruby.dir_cntrl102.requestToDir.m_msg_count        10711                       # Number of messages passed the buffer (Count)
system.ruby.dir_cntrl102.requestToDir.m_buf_msgs     0.001247                       # Average number of messages in buffer ((Count/Tick))
system.ruby.dir_cntrl102.responseToDir.m_msg_count        10752                       # Number of messages passed the buffer (Count)
system.ruby.dir_cntrl102.responseToDir.m_buf_msgs     0.001252                       # Average number of messages in buffer ((Count/Tick))
system.ruby.dir_cntrl103.power_state.pwrStateResidencyTicks::UNDEFINED   2147483750                       # Cumulative time (in ticks) in various power states (Tick)
system.ruby.dir_cntrl103.requestToDir.m_msg_count        10840                       # Number of messages passed the buffer (Count)
system.ruby.dir_cntrl103.requestToDir.m_buf_msgs     0.001262                       # Average number of messages in buffer ((Count/Tick))
system.ruby.dir_cntrl103.responseToDir.m_msg_count        10673                       # Number of messages passed the buffer (Count)
system.ruby.dir_cntrl103.responseToDir.m_buf_msgs     0.001243                       # Average number of messages in buffer ((Count/Tick))
system.ruby.dir_cntrl104.power_state.pwrStateResidencyTicks::UNDEFINED   2147483750                       # Cumulative time (in ticks) in various power states (Tick)
system.ruby.dir_cntrl104.requestToDir.m_msg_count        10767                       # Number of messages passed the buffer (Count)
system.ruby.dir_cntrl104.requestToDir.m_buf_msgs     0.001253                       # Average number of messages in buffer ((Count/Tick))
system.ruby.dir_cntrl104.responseToDir.m_msg_count        10731                       # Number of messages passed the buffer (Count)
system.ruby.dir_cntrl104.responseToDir.m_buf_msgs     0.001249                       # Average number of messages in buffer ((Count/Tick))
system.ruby.dir_cntrl105.power_state.pwrStateResidencyTicks::UNDEFINED   2147483750                       # Cumulative time (in ticks) in various power states (Tick)
system.ruby.dir_cntrl105.requestToDir.m_msg_count        10660                       # Number of messages passed the buffer (Count)
system.ruby.dir_cntrl105.requestToDir.m_buf_msgs     0.001241                       # Average number of messages in buffer ((Count/Tick))
system.ruby.dir_cntrl105.responseToDir.m_msg_count        10642                       # Number of messages passed the buffer (Count)
system.ruby.dir_cntrl105.responseToDir.m_buf_msgs     0.001239                       # Average number of messages in buffer ((Count/Tick))
system.ruby.dir_cntrl106.power_state.pwrStateResidencyTicks::UNDEFINED   2147483750                       # Cumulative time (in ticks) in various power states (Tick)
system.ruby.dir_cntrl106.requestToDir.m_msg_count        10683                       # Number of messages passed the buffer (Count)
system.ruby.dir_cntrl106.requestToDir.m_buf_msgs     0.001244                       # Average number of messages in buffer ((Count/Tick))
system.ruby.dir_cntrl106.responseToDir.m_msg_count        10767                       # Number of messages passed the buffer (Count)
system.ruby.dir_cntrl106.responseToDir.m_buf_msgs     0.001253                       # Average number of messages in buffer ((Count/Tick))
system.ruby.dir_cntrl107.power_state.pwrStateResidencyTicks::UNDEFINED   2147483750                       # Cumulative time (in ticks) in various power states (Tick)
system.ruby.dir_cntrl107.requestToDir.m_msg_count        10429                       # Number of messages passed the buffer (Count)
system.ruby.dir_cntrl107.requestToDir.m_buf_msgs     0.001214                       # Average number of messages in buffer ((Count/Tick))
system.ruby.dir_cntrl107.responseToDir.m_msg_count        10706                       # Number of messages passed the buffer (Count)
system.ruby.dir_cntrl107.responseToDir.m_buf_msgs     0.001246                       # Average number of messages in buffer ((Count/Tick))
system.ruby.dir_cntrl108.power_state.pwrStateResidencyTicks::UNDEFINED   2147483750                       # Cumulative time (in ticks) in various power states (Tick)
system.ruby.dir_cntrl108.requestToDir.m_msg_count        10598                       # Number of messages passed the buffer (Count)
system.ruby.dir_cntrl108.requestToDir.m_buf_msgs     0.001234                       # Average number of messages in buffer ((Count/Tick))
system.ruby.dir_cntrl108.responseToDir.m_msg_count        10848                       # Number of messages passed the buffer (Count)
system.ruby.dir_cntrl108.responseToDir.m_buf_msgs     0.001263                       # Average number of messages in buffer ((Count/Tick))
system.ruby.dir_cntrl109.power_state.pwrStateResidencyTicks::UNDEFINED   2147483750                       # Cumulative time (in ticks) in various power states (Tick)
system.ruby.dir_cntrl109.requestToDir.m_msg_count        10773                       # Number of messages passed the buffer (Count)
system.ruby.dir_cntrl109.requestToDir.m_buf_msgs     0.001254                       # Average number of messages in buffer ((Count/Tick))
system.ruby.dir_cntrl109.responseToDir.m_msg_count        10741                       # Number of messages passed the buffer (Count)
system.ruby.dir_cntrl109.responseToDir.m_buf_msgs     0.001250                       # Average number of messages in buffer ((Count/Tick))
system.ruby.dir_cntrl11.power_state.pwrStateResidencyTicks::UNDEFINED   2147483750                       # Cumulative time (in ticks) in various power states (Tick)
system.ruby.dir_cntrl11.requestToDir.m_msg_count        10606                       # Number of messages passed the buffer (Count)
system.ruby.dir_cntrl11.requestToDir.m_buf_msgs     0.001235                       # Average number of messages in buffer ((Count/Tick))
system.ruby.dir_cntrl11.responseToDir.m_msg_count        10842                       # Number of messages passed the buffer (Count)
[...]
system.ruby.network.sankey.vcvn13.vcvn5             0                       (Unspecified)
system.ruby.network.sankey.vcvn13.vcvn6             0                       (Unspecified)
system.ruby.network.sankey.vcvn13.vcvn7             0                       (Unspecified)
system.ruby.network.sankey.vcvn13.vcvn8             0                       (Unspecified)
system.ruby.network.sankey.vcvn13.vcvn9             0                       (Unspecified)
system.ruby.network.sankey.vcvn14.vcvn0             0                       (Unspecified)
system.ruby.network.sankey.vcvn14.vcvn1             0                       (Unspecified)
system.ruby.network.sankey.vcvn14.vcvn10            0                       (Unspecified)
system.ruby.network.sankey.vcvn14.vcvn11            0                       (Unspecified)
system.ruby.network.sankey.vcvn14.vcvn12            0                       (Unspecified)
system.ruby.network.sankey.vcvn14.vcvn13            0                       (Unspecified)
system.ruby.network.sankey.vcvn14.vcvn14      2685855                       (Unspecified)
system.ruby.network.sankey.vcvn14.vcvn15            0                       (Unspecified)
system.ruby.network.sankey.vcvn14.vcvn16            0                       (Unspecified)
system.ruby.network.sankey.vcvn14.vcvn17            0                       (Unspecified)
system.ruby.network.sankey.vcvn14.vcvn2             0                       (Unspecified)
system.ruby.network.sankey.vcvn14.vcvn3             0                       (Unspecified)
system.ruby.network.sankey.vcvn14.vcvn4             0                       (Unspecified)
system.ruby.network.sankey.vcvn14.vcvn5             0                       (Unspecified)
system.ruby.network.sankey.vcvn14.vcvn6             0                       (Unspecified)
system.ruby.network.sankey.vcvn14.vcvn7             0                       (Unspecified)
system.ruby.network.sankey.vcvn14.vcvn8             0                       (Unspecified)
system.ruby.network.sankey.vcvn14.vcvn9             0                       (Unspecified)
system.ruby.network.sankey.vcvn15.vcvn0             0                       (Unspecified)
system.ruby.network.sankey.vcvn15.vcvn1             0                       (Unspecified)
system.ruby.network.sankey.vcvn15.vcvn10            0                       (Unspecified)
system.ruby.network.sankey.vcvn15.vcvn11            0                       (Unspecified)
system.ruby.network.sankey.vcvn15.vcvn12            0                       (Unspecified)
system.ruby.network.sankey.vcvn15.vcvn13            0                       (Unspecified)
system.ruby.network.sankey.vcvn15.vcvn14            0                       (Unspecified)
system.ruby.network.sankey.vcvn15.vcvn15      1421290                       (Unspecified)
system.ruby.network.sankey.vcvn15.vcvn16            0                       (Unspecified)
system.ruby.network.sankey.vcvn15.vcvn17            0                       (Unspecified)
system.ruby.network.sankey.vcvn15.vcvn2             0                       (Unspecified)
system.ruby.network.sankey.vcvn15.vcvn3             0                       (Unspecified)
system.ruby.network.sankey.vcvn15.vcvn4             0                       (Unspecified)
system.ruby.network.sankey.vcvn15.vcvn5             0                       (Unspecified)
system.ruby.network.sankey.vcvn15.vcvn6             0                       (Unspecified)
system.ruby.network.sankey.vcvn15.vcvn7             0                       (Unspecified)
system.ruby.network.sankey.vcvn15.vcvn8             0                       (Unspecified)
system.ruby.network.sankey.vcvn15.vcvn9             0                       (Unspecified)
system.ruby.network.sankey.vcvn16.vcvn0             0                       (Unspecified)
system.ruby.network.sankey.vcvn16.vcvn1             0                       (Unspecified)
system.ruby.network.sankey.vcvn16.vcvn10            0                       (Unspecified)
system.ruby.network.sankey.vcvn16.vcvn11            0                       (Unspecified)
system.ruby.network.sankey.vcvn16.vcvn12            0                       (Unspecified)
system.ruby.network.sankey.vcvn16.vcvn13            0                       (Unspecified)
system.ruby.network.sankey.vcvn16.vcvn14            0                       (Unspecified)
system.ruby.network.sankey.vcvn16.vcvn15            0                       (Unspecified)
system.ruby.network.sankey.vcvn16.vcvn16      1301780                       (Unspecified)
system.ruby.network.sankey.vcvn16.vcvn17            0                       (Unspecified)
system.ruby.network.sankey.vcvn16.vcvn2             0                       (Unspecified)
system.ruby.network.sankey.vcvn16.vcvn3             0                       (Unspecified)
system.ruby.network.sankey.vcvn16.vcvn4             0                       (Unspecified)
system.ruby.network.sankey.vcvn16.vcvn5             0                       (Unspecified)
system.ruby.network.sankey.vcvn16.vcvn6             0                       (Unspecified)
system.ruby.network.sankey.vcvn16.vcvn7             0                       (Unspecified)
system.ruby.network.sankey.vcvn16.vcvn8             0                       (Unspecified)
system.ruby.network.sankey.vcvn16.vcvn9             0                       (Unspecified)
system.ruby.network.sankey.vcvn17.vcvn0             0                       (Unspecified)
system.ruby.network.sankey.vcvn17.vcvn1             0                       (Unspecified)
system.ruby.network.sankey.vcvn17.vcvn10            0                       (Unspecified)
system.ruby.network.sankey.vcvn17.vcvn11            0                       (Unspecified)
system.ruby.network.sankey.vcvn17.vcvn12            0                       (Unspecified)
system.ruby.network.sankey.vcvn17.vcvn13            0                       (Unspecified)
system.ruby.network.sankey.vcvn17.vcvn14            0                       (Unspecified)
system.ruby.network.sankey.vcvn17.vcvn15            0                       (Unspecified)
system.ruby.network.sankey.vcvn17.vcvn16            0                       (Unspecified)
system.ruby.network.sankey.vcvn17.vcvn17       969210                       (Unspecified)
system.ruby.network.sankey.vcvn17.vcvn2             0                       (Unspecified)
system.ruby.network.sankey.vcvn17.vcvn3             0                       (Unspecified)
system.ruby.network.sankey.vcvn17.vcvn4             0                       (Unspecified)
system.ruby.network.sankey.vcvn17.vcvn5             0                       (Unspecified)
system.ruby.network.sankey.vcvn17.vcvn6             0                       (Unspecified)
system.ruby.network.sankey.vcvn17.vcvn7             0                       (Unspecified)
system.ruby.network.sankey.vcvn17.vcvn8             0                       (Unspecified)
system.ruby.network.sankey.vcvn17.vcvn9             0                       (Unspecified)
system.ruby.network.sankey.vcvn2.vcvn0              0                       (Unspecified)
system.ruby.network.sankey.vcvn2.vcvn1              0                       (Unspecified)
system.ruby.network.sankey.vcvn2.vcvn10             0                       (Unspecified)
system.ruby.network.sankey.vcvn2.vcvn11             0                       (Unspecified)
system.ruby.network.sankey.vcvn2.vcvn12             0                       (Unspecified)
system.ruby.network.sankey.vcvn2.vcvn13             0                       (Unspecified)
system.ruby.network.sankey.vcvn2.vcvn14             0                       (Unspecified)
system.ruby.network.sankey.vcvn2.vcvn15             0                       (Unspecified)
system.ruby.network.sankey.vcvn2.vcvn16             0                       (Unspecified)
system.ruby.network.sankey.vcvn2.vcvn17             0                       (Unspecified)
system.ruby.network.sankey.vcvn2.vcvn2         546084                       (Unspecified)
system.ruby.network.sankey.vcvn2.vcvn3              0                       (Unspecified)
system.ruby.network.sankey.vcvn2.vcvn4              0                       (Unspecified)
system.ruby.network.sankey.vcvn2.vcvn5              0                       (Unspecified)
system.ruby.network.sankey.vcvn2.vcvn6              0                       (Unspecified)
system.ruby.network.sankey.vcvn2.vcvn7              0                       (Unspecified)
system.ruby.network.sankey.vcvn2.vcvn8              0                       (Unspecified)
system.ruby.network.sankey.vcvn2.vcvn9              0                       (Unspecified)
system.ruby.network.sankey.vcvn3.vcvn0              0                       (Unspecified)
system.ruby.network.sankey.vcvn3.vcvn1              0                       (Unspecified)
system.ruby.network.sankey.vcvn3.vcvn10             0                       (Unspecified)
system.ruby.network.sankey.vcvn3.vcvn11             0                       (Unspecified)
system.ruby.network.sankey.vcvn3.vcvn12             0                       (Unspecified)
system.ruby.network.sankey.vcvn3.vcvn13             0                       (Unspecified)
system.ruby.network.sankey.vcvn3.vcvn14             0                       (Unspecified)
system.ruby.network.sankey.vcvn3.vcvn15             0                       (Unspecified)
system.ruby.network.sankey.vcvn3.vcvn16             0                       (Unspecified)
system.ruby.network.sankey.vcvn3.vcvn17             0                       (Unspecified)
system.ruby.network.sankey.vcvn3.vcvn2              0                       (Unspecified)
system.ruby.network.sankey.vcvn3.vcvn3         288787                       (Unspecified)
system.ruby.network.sankey.vcvn3.vcvn4              0                       (Unspecified)
system.ruby.network.sankey.vcvn3.vcvn5              0                       (Unspecified)
system.ruby.network.sankey.vcvn3.vcvn6              0                       (Unspecified)
system.ruby.network.sankey.vcvn3.vcvn7              0                       (Unspecified)
system.ruby.network.sankey.vcvn3.vcvn8              0                       (Unspecified)
system.ruby.network.sankey.vcvn3.vcvn9              0                       (Unspecified)
system.ruby.network.sankey.vcvn4.vcvn0              0                       (Unspecified)
system.ruby.network.sankey.vcvn4.vcvn1              0                       (Unspecified)
system.ruby.network.sankey.vcvn4.vcvn10             0                       (Unspecified)
system.ruby.network.sankey.vcvn4.vcvn11             0                       (Unspecified)
system.ruby.network.sankey.vcvn4.vcvn12             0                       (Unspecified)
system.ruby.network.sankey.vcvn4.vcvn13             0                       (Unspecified)
system.ruby.network.sankey.vcvn4.vcvn14             0                       (Unspecified)
system.ruby.network.sankey.vcvn4.vcvn15             0                       (Unspecified)
system.ruby.network.sankey.vcvn4.vcvn16             0                       (Unspecified)
system.ruby.network.sankey.vcvn4.vcvn17             0                       (Unspecified)
system.ruby.network.sankey.vcvn4.vcvn2              0                       (Unspecified)
system.ruby.network.sankey.vcvn4.vcvn3              0                       (Unspecified)
system.ruby.network.sankey.vcvn4.vcvn4         263846                       (Unspecified)
system.ruby.network.sankey.vcvn4.vcvn5              0                       (Unspecified)
system.ruby.network.sankey.vcvn4.vcvn6              0                       (Unspecified)
system.ruby.network.sankey.vcvn4.vcvn7              0                       (Unspecified)
system.ruby.network.sankey.vcvn4.vcvn8              0                       (Unspecified)
system.ruby.network.sankey.vcvn4.vcvn9              0                       (Unspecified)
system.ruby.network.sankey.vcvn5.vcvn0              0                       (Unspecified)
system.ruby.network.sankey.vcvn5.vcvn1              0                       (Unspecified)
system.ruby.network.sankey.vcvn5.vcvn10             0                       (Unspecified)
system.ruby.network.sankey.vcvn5.vcvn11             0                       (Unspecified)
system.ruby.network.sankey.vcvn5.vcvn12             0                       (Unspecified)
system.ruby.network.sankey.vcvn5.vcvn13             0                       (Unspecified)
system.ruby.network.sankey.vcvn5.vcvn14             0                       (Unspecified)
system.ruby.network.sankey.vcvn5.vcvn15             0                       (Unspecified)
system.ruby.network.sankey.vcvn5.vcvn16             0                       (Unspecified)
system.ruby.network.sankey.vcvn5.vcvn17             0                       (Unspecified)
system.ruby.network.sankey.vcvn5.vcvn2              0                       (Unspecified)
system.ruby.network.sankey.vcvn5.vcvn3              0                       (Unspecified)
system.ruby.network.sankey.vcvn5.vcvn4              0                       (Unspecified)
system.ruby.network.sankey.vcvn5.vcvn5         194169                       (Unspecified)
system.ruby.network.sankey.vcvn5.vcvn6              0                       (Unspecified)
system.ruby.network.sankey.vcvn5.vcvn7              0                       (Unspecified)
system.ruby.network.sankey.vcvn5.vcvn8              0                       (Unspecified)
system.ruby.network.sankey.vcvn5.vcvn9              0                       (Unspecified)
system.ruby.network.sankey.vcvn6.vcvn0              0                       (Unspecified)
system.ruby.network.sankey.vcvn6.vcvn1              0                       (Unspecified)
system.ruby.network.sankey.vcvn6.vcvn10             0                       (Unspecified)
system.ruby.network.sankey.vcvn6.vcvn11             0                       (Unspecified)
system.ruby.network.sankey.vcvn6.vcvn12             0                       (Unspecified)
system.ruby.network.sankey.vcvn6.vcvn13             0                       (Unspecified)
system.ruby.network.sankey.vcvn6.vcvn14             0                       (Unspecified)
system.ruby.network.sankey.vcvn6.vcvn15             0                       (Unspecified)
system.ruby.network.sankey.vcvn6.vcvn16             0                       (Unspecified)
system.ruby.network.sankey.vcvn6.vcvn17             0                       (Unspecified)
system.ruby.network.sankey.vcvn6.vcvn2              0                       (Unspecified)
system.ruby.network.sankey.vcvn6.vcvn3              0                       (Unspecified)
system.ruby.network.sankey.vcvn6.vcvn4              0                       (Unspecified)
system.ruby.network.sankey.vcvn6.vcvn5              0                       (Unspecified)
system.ruby.network.sankey.vcvn6.vcvn6              0                       (Unspecified)
system.ruby.network.sankey.vcvn6.vcvn7              0                       (Unspecified)
system.ruby.network.sankey.vcvn6.vcvn8              0                       (Unspecified)
system.ruby.network.sankey.vcvn6.vcvn9              0                       (Unspecified)
system.ruby.network.sankey.vcvn7.vcvn0              0                       (Unspecified)
system.ruby.network.sankey.vcvn7.vcvn1              0                       (Unspecified)
system.ruby.network.sankey.vcvn7.vcvn10             0                       (Unspecified)
system.ruby.network.sankey.vcvn7.vcvn11             0                       (Unspecified)
system.ruby.network.sankey.vcvn7.vcvn12             0                       (Unspecified)
system.ruby.network.sankey.vcvn7.vcvn13             0                       (Unspecified)
system.ruby.network.sankey.vcvn7.vcvn14             0                       (Unspecified)
system.ruby.network.sankey.vcvn7.vcvn15             0                       (Unspecified)
system.ruby.network.sankey.vcvn7.vcvn16             0                       (Unspecified)
system.ruby.network.sankey.vcvn7.vcvn17             0                       (Unspecified)
system.ruby.network.sankey.vcvn7.vcvn2              0                       (Unspecified)
system.ruby.network.sankey.vcvn7.vcvn3              0                       (Unspecified)
system.ruby.network.sankey.vcvn7.vcvn4              0                       (Unspecified)
system.ruby.network.sankey.vcvn7.vcvn5              0                       (Unspecified)
system.ruby.network.sankey.vcvn7.vcvn6              0                       (Unspecified)
system.ruby.network.sankey.vcvn7.vcvn7              0                       (Unspecified)
system.ruby.network.sankey.vcvn7.vcvn8              0                       (Unspecified)
system.ruby.network.sankey.vcvn7.vcvn9              0                       (Unspecified)
system.ruby.network.sankey.vcvn8.vcvn0              0                       (Unspecified)
system.ruby.network.sankey.vcvn8.vcvn1              0                       (Unspecified)
system.ruby.network.sankey.vcvn8.vcvn10             0                       (Unspecified)
system.ruby.network.sankey.vcvn8.vcvn11             0                       (Unspecified)
system.ruby.network.sankey.vcvn8.vcvn12             0                       (Unspecified)
system.ruby.network.sankey.vcvn8.vcvn13             0                       (Unspecified)
system.ruby.network.sankey.vcvn8.vcvn14             0                       (Unspecified)
system.ruby.network.sankey.vcvn8.vcvn15             0                       (Unspecified)
system.ruby.network.sankey.vcvn8.vcvn16             0                       (Unspecified)
system.ruby.network.sankey.vcvn8.vcvn17             0                       (Unspecified)
system.ruby.network.sankey.vcvn8.vcvn2              0                       (Unspecified)
system.ruby.network.sankey.vcvn8.vcvn3              0                       (Unspecified)
system.ruby.network.sankey.vcvn8.vcvn4              0                       (Unspecified)
system.ruby.network.sankey.vcvn8.vcvn5              0                       (Unspecified)
system.ruby.network.sankey.vcvn8.vcvn6              0                       (Unspecified)
system.ruby.network.sankey.vcvn8.vcvn7              0                       (Unspecified)
system.ruby.network.sankey.vcvn8.vcvn8              0                       (Unspecified)
system.ruby.network.sankey.vcvn8.vcvn9              0                       (Unspecified)
system.ruby.network.sankey.vcvn9.vcvn0              0                       (Unspecified)
system.ruby.network.sankey.vcvn9.vcvn1              0                       (Unspecified)
system.ruby.network.sankey.vcvn9.vcvn10             0                       (Unspecified)
system.ruby.network.sankey.vcvn9.vcvn11             0                       (Unspecified)
system.ruby.network.sankey.vcvn9.vcvn12             0                       (Unspecified)
system.ruby.network.sankey.vcvn9.vcvn13             0                       (Unspecified)
system.ruby.network.sankey.vcvn9.vcvn14             0                       (Unspecified)
system.ruby.network.sankey.vcvn9.vcvn15             0                       (Unspecified)
system.ruby.network.sankey.vcvn9.vcvn16             0                       (Unspecified)
system.ruby.network.sankey.vcvn9.vcvn17             0                       (Unspecified)
system.ruby.network.sankey.vcvn9.vcvn2              0                       (Unspecified)
system.ruby.network.sankey.vcvn9.vcvn3              0                       (Unspecified)
system.ruby.network.sankey.vcvn9.vcvn4              0                       (Unspecified)
system.ruby.network.sankey.vcvn9.vcvn5              0                       (Unspecified)
system.ruby.network.sankey.vcvn9.vcvn6              0                       (Unspecified)
system.ruby.network.sankey.vcvn9.vcvn7              0                       (Unspecified)
system.ruby.network.sankey.vcvn9.vcvn8              0                       (Unspecified)
system.ruby.network.sankey.vcvn9.vcvn9              0                       (Unspecified)

---------- End Simulation Statistics   ----------
