gem5 Simulator System.  https://www.gem5.org
gem5 is copyrighted software; use the --copyright option for details.

gem5 version 22.0.0.2
gem5 compiled Jun 17 2023 14:31:12
gem5 started Nov 18 2023 15:49:06
gem5 executing on mnemosyne14.ecn.purdue.edu, pid 23423
command line: ./build/Garnet_standalone/gem5.fast -d ./synth_outputs/simple/2b/mixed/mclb_hops_4_6_40cpus_4xdirs_4.0GHz/coh/dbl_bfly_x/0_16/ configs/auto_top/auto_top_synth.py --topology EscapeVirtualNetworks --noi_routers 20 --sim-cycles 2147483647 --injectionrate 0.16 --noc_clk 4.0GHz --sys-clock 4.0GHz --ruby-clock 4.0GHz --noi_clk 2.7GHz --router_map_file configs/topologies/paper_solutions/dbl_bfly_x.map --flat_vn_map_file configs/topologies/vn_maps_mclb/dbl_bfly_x_mclb_hops_4vns.vn --flat_nr_map_file configs/topologies/nr_list_mclb/dbl_bfly_x_mclb.nrl --ruby --mem_or_coh coh --mem-size 320000000 --num-dirs 160 --num-cpus 40 --network garnet --mem-type SimpleMemory --routing-algorithm 2 --use_escape_vns --synth_traffic --vcs-per-vnet 6 --evn_deadlock_partition 2 --evn_n_deadlock_free 1 --evn_min_n_deadlock_free 4

info: Standard input is not a terminal, disabling listeners.
ingesting configs/topologies/vn_maps_mclb/dbl_bfly_x_mclb_hops_4vns.vn
cpus(40)=[<m5.objects.GarnetSyntheticTraffic.GarnetSyntheticTraffic object at 0x7f77556df048>, <m5.objects.GarnetSyntheticTraffic.GarnetSyntheticTraffic object at 0x7f77556dfe10>, <m5.objects.GarnetSyntheticTraffic.GarnetSyntheticTraffic object at 0x7f775525d128>, <m5.objects.GarnetSyntheticTraffic.GarnetSyntheticTraffic object at 0x7f775525d400>, <m5.objects.GarnetSyntheticTraffic.GarnetSyntheticTraffic object at 0x7f775525d6d8>, <m5.objects.GarnetSyntheticTraffic.GarnetSyntheticTraffic object at 0x7f775525d9b0>, <m5.objects.GarnetSyntheticTraffic.GarnetSyntheticTraffic object at 0x7f775525dc88>, <m5.objects.GarnetSyntheticTraffic.GarnetSyntheticTraffic object at 0x7f775525df60>, <m5.objects.GarnetSyntheticTraffic.GarnetSyntheticTraffic object at 0x7f7755266278>, <m5.objects.GarnetSyntheticTraffic.GarnetSyntheticTraffic object at 0x7f7755266550>, <m5.objects.GarnetSyntheticTraffic.GarnetSyntheticTraffic object at 0x7f7755266828>, <m5.objects.GarnetSyntheticTraffic.GarnetSyntheticTraffic object at 0x7f7755266b00>, <m5.objects.GarnetSyntheticTraffic.GarnetSyntheticTraffic object at 0x7f77556df860>, <m5.objects.GarnetSyntheticTraffic.GarnetSyntheticTraffic object at 0x7f77556d0eb8>, <m5.objects.GarnetSyntheticTraffic.GarnetSyntheticTraffic object at 0x7f77556da6d8>, <m5.objects.GarnetSyntheticTraffic.GarnetSyntheticTraffic object at 0x7f77556dad30>, <m5.objects.GarnetSyntheticTraffic.GarnetSyntheticTraffic object at 0x7f7755266d68>, <m5.objects.GarnetSyntheticTraffic.GarnetSyntheticTraffic object at 0x7f7755272080>, <m5.objects.GarnetSyntheticTraffic.GarnetSyntheticTraffic object at 0x7f7755272358>, <m5.objects.GarnetSyntheticTraffic.GarnetSyntheticTraffic object at 0x7f7755272630>, <m5.objects.GarnetSyntheticTraffic.GarnetSyntheticTraffic object at 0x7f7755272908>, <m5.objects.GarnetSyntheticTraffic.GarnetSyntheticTraffic object at 0x7f7755272be0>, <m5.objects.GarnetSyntheticTraffic.GarnetSyntheticTraffic object at 0x7f7755272eb8>, <m5.objects.GarnetSyntheticTraffic.GarnetSyntheticTraffic object at 0x7f77552791d0>, <m5.objects.GarnetSyntheticTraffic.GarnetSyntheticTraffic object at 0x7f77552794a8>, <m5.objects.GarnetSyntheticTraffic.GarnetSyntheticTraffic object at 0x7f7755279780>, <m5.objects.GarnetSyntheticTraffic.GarnetSyntheticTraffic object at 0x7f7755279a58>, <m5.objects.GarnetSyntheticTraffic.GarnetSyntheticTraffic object at 0x7f7755279d30>, <m5.objects.GarnetSyntheticTraffic.GarnetSyntheticTraffic object at 0x7f7755281048>, <m5.objects.GarnetSyntheticTraffic.GarnetSyntheticTraffic object at 0x7f7755281320>, <m5.objects.GarnetSyntheticTraffic.GarnetSyntheticTraffic object at 0x7f77552815f8>, <m5.objects.GarnetSyntheticTraffic.GarnetSyntheticTraffic object at 0x7f77552818d0>, <m5.objects.GarnetSyntheticTraffic.GarnetSyntheticTraffic object at 0x7f7755281ba8>, <m5.objects.GarnetSyntheticTraffic.GarnetSyntheticTraffic object at 0x7f7755281e80>, <m5.objects.GarnetSyntheticTraffic.GarnetSyntheticTraffic object at 0x7f775528a198>, <m5.objects.GarnetSyntheticTraffic.GarnetSyntheticTraffic object at 0x7f775528a470>, <m5.objects.GarnetSyntheticTraffic.GarnetSyntheticTraffic object at 0x7f775528a748>, <m5.objects.GarnetSyntheticTraffic.GarnetSyntheticTraffic object at 0x7f775528aa20>, <m5.objects.GarnetSyntheticTraffic.GarnetSyntheticTraffic object at 0x7f775528acf8>, <m5.objects.GarnetSyntheticTraffic.GarnetSyntheticTraffic object at 0x7f775528afd0>])
ingesting configs/topologies/nr_list_mclb/dbl_bfly_x_mclb.nrl
ingesting configs/topologies/vn_maps_mclb/dbl_bfly_x_mclb_hops_4vns.vn
ext_cdc_required = True
