
---------- Begin Simulation Statistics ----------
simSeconds                                   0.002147                       # Number of seconds simulated (Second)
simTicks                                   2147483750                       # Number of ticks simulated (Tick)
finalTick                                  2147483750                       # Number of ticks from beginning of simulation (restored from checkpoints and never reset) (Tick)
simFreq                                  1000000000000                       # The number of ticks per simulated second ((Tick/Second))
hostSeconds                                  13867.92                       # Real time elapsed on the host (Second)
hostTickRate                                   154853                       # The number of ticks simulated per host second (ticks/s) ((Tick/Second))
hostMemory                                   14576444                       # Number of bytes of host memory used (Byte)
system.clk_domain.clock                           250                       # Clock period in ticks (Tick)
system.cpu0.power_state.pwrStateResidencyTicks::UNDEFINED   2147483750                       # Cumulative time (in ticks) in various power states (Tick)
system.cpu1.power_state.pwrStateResidencyTicks::UNDEFINED   2147483750                       # Cumulative time (in ticks) in various power states (Tick)
system.cpu10.power_state.pwrStateResidencyTicks::UNDEFINED   2147483750                       # Cumulative time (in ticks) in various power states (Tick)
system.cpu11.power_state.pwrStateResidencyTicks::UNDEFINED   2147483750                       # Cumulative time (in ticks) in various power states (Tick)
system.cpu12.power_state.pwrStateResidencyTicks::UNDEFINED   2147483750                       # Cumulative time (in ticks) in various power states (Tick)
system.cpu13.power_state.pwrStateResidencyTicks::UNDEFINED   2147483750                       # Cumulative time (in ticks) in various power states (Tick)
system.cpu14.power_state.pwrStateResidencyTicks::UNDEFINED   2147483750                       # Cumulative time (in ticks) in various power states (Tick)
system.cpu15.power_state.pwrStateResidencyTicks::UNDEFINED   2147483750                       # Cumulative time (in ticks) in various power states (Tick)
system.cpu16.power_state.pwrStateResidencyTicks::UNDEFINED   2147483750                       # Cumulative time (in ticks) in various power states (Tick)
system.cpu17.power_state.pwrStateResidencyTicks::UNDEFINED   2147483750                       # Cumulative time (in ticks) in various power states (Tick)
system.cpu18.power_state.pwrStateResidencyTicks::UNDEFINED   2147483750                       # Cumulative time (in ticks) in various power states (Tick)
system.cpu19.power_state.pwrStateResidencyTicks::UNDEFINED   2147483750                       # Cumulative time (in ticks) in various power states (Tick)
system.cpu2.power_state.pwrStateResidencyTicks::UNDEFINED   2147483750                       # Cumulative time (in ticks) in various power states (Tick)
system.cpu20.power_state.pwrStateResidencyTicks::UNDEFINED   2147483750                       # Cumulative time (in ticks) in various power states (Tick)
system.cpu21.power_state.pwrStateResidencyTicks::UNDEFINED   2147483750                       # Cumulative time (in ticks) in various power states (Tick)
system.cpu22.power_state.pwrStateResidencyTicks::UNDEFINED   2147483750                       # Cumulative time (in ticks) in various power states (Tick)
system.cpu23.power_state.pwrStateResidencyTicks::UNDEFINED   2147483750                       # Cumulative time (in ticks) in various power states (Tick)
system.cpu24.power_state.pwrStateResidencyTicks::UNDEFINED   2147483750                       # Cumulative time (in ticks) in various power states (Tick)
system.cpu25.power_state.pwrStateResidencyTicks::UNDEFINED   2147483750                       # Cumulative time (in ticks) in various power states (Tick)
system.cpu26.power_state.pwrStateResidencyTicks::UNDEFINED   2147483750                       # Cumulative time (in ticks) in various power states (Tick)
system.cpu27.power_state.pwrStateResidencyTicks::UNDEFINED   2147483750                       # Cumulative time (in ticks) in various power states (Tick)
system.cpu28.power_state.pwrStateResidencyTicks::UNDEFINED   2147483750                       # Cumulative time (in ticks) in various power states (Tick)
system.cpu29.power_state.pwrStateResidencyTicks::UNDEFINED   2147483750                       # Cumulative time (in ticks) in various power states (Tick)
system.cpu3.power_state.pwrStateResidencyTicks::UNDEFINED   2147483750                       # Cumulative time (in ticks) in various power states (Tick)
system.cpu30.power_state.pwrStateResidencyTicks::UNDEFINED   2147483750                       # Cumulative time (in ticks) in various power states (Tick)
system.cpu31.power_state.pwrStateResidencyTicks::UNDEFINED   2147483750                       # Cumulative time (in ticks) in various power states (Tick)
system.cpu32.power_state.pwrStateResidencyTicks::UNDEFINED   2147483750                       # Cumulative time (in ticks) in various power states (Tick)
system.cpu33.power_state.pwrStateResidencyTicks::UNDEFINED   2147483750                       # Cumulative time (in ticks) in various power states (Tick)
system.cpu34.power_state.pwrStateResidencyTicks::UNDEFINED   2147483750                       # Cumulative time (in ticks) in various power states (Tick)
system.cpu35.power_state.pwrStateResidencyTicks::UNDEFINED   2147483750                       # Cumulative time (in ticks) in various power states (Tick)
system.cpu36.power_state.pwrStateResidencyTicks::UNDEFINED   2147483750                       # Cumulative time (in ticks) in various power states (Tick)
system.cpu37.power_state.pwrStateResidencyTicks::UNDEFINED   2147483750                       # Cumulative time (in ticks) in various power states (Tick)
system.cpu38.power_state.pwrStateResidencyTicks::UNDEFINED   2147483750                       # Cumulative time (in ticks) in various power states (Tick)
system.cpu39.power_state.pwrStateResidencyTicks::UNDEFINED   2147483750                       # Cumulative time (in ticks) in various power states (Tick)
system.cpu4.power_state.pwrStateResidencyTicks::UNDEFINED   2147483750                       # Cumulative time (in ticks) in various power states (Tick)
system.cpu40.power_state.pwrStateResidencyTicks::UNDEFINED   2147483750                       # Cumulative time (in ticks) in various power states (Tick)
system.cpu41.power_state.pwrStateResidencyTicks::UNDEFINED   2147483750                       # Cumulative time (in ticks) in various power states (Tick)
system.cpu42.power_state.pwrStateResidencyTicks::UNDEFINED   2147483750                       # Cumulative time (in ticks) in various power states (Tick)
system.cpu43.power_state.pwrStateResidencyTicks::UNDEFINED   2147483750                       # Cumulative time (in ticks) in various power states (Tick)
system.cpu44.power_state.pwrStateResidencyTicks::UNDEFINED   2147483750                       # Cumulative time (in ticks) in various power states (Tick)
system.cpu45.power_state.pwrStateResidencyTicks::UNDEFINED   2147483750                       # Cumulative time (in ticks) in various power states (Tick)
system.cpu46.power_state.pwrStateResidencyTicks::UNDEFINED   2147483750                       # Cumulative time (in ticks) in various power states (Tick)
system.cpu47.power_state.pwrStateResidencyTicks::UNDEFINED   2147483750                       # Cumulative time (in ticks) in various power states (Tick)
system.cpu48.power_state.pwrStateResidencyTicks::UNDEFINED   2147483750                       # Cumulative time (in ticks) in various power states (Tick)
system.cpu49.power_state.pwrStateResidencyTicks::UNDEFINED   2147483750                       # Cumulative time (in ticks) in various power states (Tick)
system.cpu5.power_state.pwrStateResidencyTicks::UNDEFINED   2147483750                       # Cumulative time (in ticks) in various power states (Tick)
system.cpu50.power_state.pwrStateResidencyTicks::UNDEFINED   2147483750                       # Cumulative time (in ticks) in various power states (Tick)
system.cpu51.power_state.pwrStateResidencyTicks::UNDEFINED   2147483750                       # Cumulative time (in ticks) in various power states (Tick)
system.cpu52.power_state.pwrStateResidencyTicks::UNDEFINED   2147483750                       # Cumulative time (in ticks) in various power states (Tick)
system.cpu53.power_state.pwrStateResidencyTicks::UNDEFINED   2147483750                       # Cumulative time (in ticks) in various power states (Tick)
system.cpu54.power_state.pwrStateResidencyTicks::UNDEFINED   2147483750                       # Cumulative time (in ticks) in various power states (Tick)
system.cpu55.power_state.pwrStateResidencyTicks::UNDEFINED   2147483750                       # Cumulative time (in ticks) in various power states (Tick)
system.cpu56.power_state.pwrStateResidencyTicks::UNDEFINED   2147483750                       # Cumulative time (in ticks) in various power states (Tick)
system.cpu57.power_state.pwrStateResidencyTicks::UNDEFINED   2147483750                       # Cumulative time (in ticks) in various power states (Tick)
system.cpu58.power_state.pwrStateResidencyTicks::UNDEFINED   2147483750                       # Cumulative time (in ticks) in various power states (Tick)
system.cpu59.power_state.pwrStateResidencyTicks::UNDEFINED   2147483750                       # Cumulative time (in ticks) in various power states (Tick)
system.cpu6.power_state.pwrStateResidencyTicks::UNDEFINED   2147483750                       # Cumulative time (in ticks) in various power states (Tick)
system.cpu60.power_state.pwrStateResidencyTicks::UNDEFINED   2147483750                       # Cumulative time (in ticks) in various power states (Tick)
system.cpu61.power_state.pwrStateResidencyTicks::UNDEFINED   2147483750                       # Cumulative time (in ticks) in various power states (Tick)
system.cpu62.power_state.pwrStateResidencyTicks::UNDEFINED   2147483750                       # Cumulative time (in ticks) in various power states (Tick)
system.cpu63.power_state.pwrStateResidencyTicks::UNDEFINED   2147483750                       # Cumulative time (in ticks) in various power states (Tick)
system.cpu7.power_state.pwrStateResidencyTicks::UNDEFINED   2147483750                       # Cumulative time (in ticks) in various power states (Tick)
system.cpu8.power_state.pwrStateResidencyTicks::UNDEFINED   2147483750                       # Cumulative time (in ticks) in various power states (Tick)
system.cpu9.power_state.pwrStateResidencyTicks::UNDEFINED   2147483750                       # Cumulative time (in ticks) in various power states (Tick)
system.mem_ctrls0.power_state.pwrStateResidencyTicks::UNDEFINED   2147483750                       # Cumulative time (in ticks) in various power states (Tick)
system.mem_ctrls1.power_state.pwrStateResidencyTicks::UNDEFINED   2147483750                       # Cumulative time (in ticks) in various power states (Tick)
system.mem_ctrls10.power_state.pwrStateResidencyTicks::UNDEFINED   2147483750                       # Cumulative time (in ticks) in various power states (Tick)
system.mem_ctrls11.power_state.pwrStateResidencyTicks::UNDEFINED   2147483750                       # Cumulative time (in ticks) in various power states (Tick)
system.mem_ctrls12.power_state.pwrStateResidencyTicks::UNDEFINED   2147483750                       # Cumulative time (in ticks) in various power states (Tick)
system.mem_ctrls13.power_state.pwrStateResidencyTicks::UNDEFINED   2147483750                       # Cumulative time (in ticks) in various power states (Tick)
system.mem_ctrls14.power_state.pwrStateResidencyTicks::UNDEFINED   2147483750                       # Cumulative time (in ticks) in various power states (Tick)
system.mem_ctrls15.power_state.pwrStateResidencyTicks::UNDEFINED   2147483750                       # Cumulative time (in ticks) in various power states (Tick)
system.mem_ctrls16.power_state.pwrStateResidencyTicks::UNDEFINED   2147483750                       # Cumulative time (in ticks) in various power states (Tick)
system.mem_ctrls17.power_state.pwrStateResidencyTicks::UNDEFINED   2147483750                       # Cumulative time (in ticks) in various power states (Tick)
system.mem_ctrls18.power_state.pwrStateResidencyTicks::UNDEFINED   2147483750                       # Cumulative time (in ticks) in various power states (Tick)
system.mem_ctrls19.power_state.pwrStateResidencyTicks::UNDEFINED   2147483750                       # Cumulative time (in ticks) in various power states (Tick)
system.mem_ctrls2.power_state.pwrStateResidencyTicks::UNDEFINED   2147483750                       # Cumulative time (in ticks) in various power states (Tick)
system.mem_ctrls20.power_state.pwrStateResidencyTicks::UNDEFINED   2147483750                       # Cumulative time (in ticks) in various power states (Tick)
system.mem_ctrls21.power_state.pwrStateResidencyTicks::UNDEFINED   2147483750                       # Cumulative time (in ticks) in various power states (Tick)
system.mem_ctrls22.power_state.pwrStateResidencyTicks::UNDEFINED   2147483750                       # Cumulative time (in ticks) in various power states (Tick)
system.mem_ctrls23.power_state.pwrStateResidencyTicks::UNDEFINED   2147483750                       # Cumulative time (in ticks) in various power states (Tick)
system.mem_ctrls24.power_state.pwrStateResidencyTicks::UNDEFINED   2147483750                       # Cumulative time (in ticks) in various power states (Tick)
system.mem_ctrls25.power_state.pwrStateResidencyTicks::UNDEFINED   2147483750                       # Cumulative time (in ticks) in various power states (Tick)
system.mem_ctrls26.power_state.pwrStateResidencyTicks::UNDEFINED   2147483750                       # Cumulative time (in ticks) in various power states (Tick)
system.mem_ctrls27.power_state.pwrStateResidencyTicks::UNDEFINED   2147483750                       # Cumulative time (in ticks) in various power states (Tick)
system.mem_ctrls28.power_state.pwrStateResidencyTicks::UNDEFINED   2147483750                       # Cumulative time (in ticks) in various power states (Tick)
system.mem_ctrls29.power_state.pwrStateResidencyTicks::UNDEFINED   2147483750                       # Cumulative time (in ticks) in various power states (Tick)
system.mem_ctrls3.power_state.pwrStateResidencyTicks::UNDEFINED   2147483750                       # Cumulative time (in ticks) in various power states (Tick)
system.mem_ctrls30.power_state.pwrStateResidencyTicks::UNDEFINED   2147483750                       # Cumulative time (in ticks) in various power states (Tick)
system.mem_ctrls31.power_state.pwrStateResidencyTicks::UNDEFINED   2147483750                       # Cumulative time (in ticks) in various power states (Tick)
system.mem_ctrls32.power_state.pwrStateResidencyTicks::UNDEFINED   2147483750                       # Cumulative time (in ticks) in various power states (Tick)
system.mem_ctrls33.power_state.pwrStateResidencyTicks::UNDEFINED   2147483750                       # Cumulative time (in ticks) in various power states (Tick)
system.mem_ctrls34.power_state.pwrStateResidencyTicks::UNDEFINED   2147483750                       # Cumulative time (in ticks) in various power states (Tick)
system.mem_ctrls35.power_state.pwrStateResidencyTicks::UNDEFINED   2147483750                       # Cumulative time (in ticks) in various power states (Tick)
system.mem_ctrls36.power_state.pwrStateResidencyTicks::UNDEFINED   2147483750                       # Cumulative time (in ticks) in various power states (Tick)
system.mem_ctrls37.power_state.pwrStateResidencyTicks::UNDEFINED   2147483750                       # Cumulative time (in ticks) in various power states (Tick)
system.mem_ctrls38.power_state.pwrStateResidencyTicks::UNDEFINED   2147483750                       # Cumulative time (in ticks) in various power states (Tick)
system.mem_ctrls39.power_state.pwrStateResidencyTicks::UNDEFINED   2147483750                       # Cumulative time (in ticks) in various power states (Tick)
system.mem_ctrls4.power_state.pwrStateResidencyTicks::UNDEFINED   2147483750                       # Cumulative time (in ticks) in various power states (Tick)
system.mem_ctrls40.power_state.pwrStateResidencyTicks::UNDEFINED   2147483750                       # Cumulative time (in ticks) in various power states (Tick)
system.mem_ctrls41.power_state.pwrStateResidencyTicks::UNDEFINED   2147483750                       # Cumulative time (in ticks) in various power states (Tick)
system.mem_ctrls42.power_state.pwrStateResidencyTicks::UNDEFINED   2147483750                       # Cumulative time (in ticks) in various power states (Tick)
system.mem_ctrls43.power_state.pwrStateResidencyTicks::UNDEFINED   2147483750                       # Cumulative time (in ticks) in various power states (Tick)
system.mem_ctrls44.power_state.pwrStateResidencyTicks::UNDEFINED   2147483750                       # Cumulative time (in ticks) in various power states (Tick)
system.mem_ctrls45.power_state.pwrStateResidencyTicks::UNDEFINED   2147483750                       # Cumulative time (in ticks) in various power states (Tick)
system.mem_ctrls46.power_state.pwrStateResidencyTicks::UNDEFINED   2147483750                       # Cumulative time (in ticks) in various power states (Tick)
system.mem_ctrls47.power_state.pwrStateResidencyTicks::UNDEFINED   2147483750                       # Cumulative time (in ticks) in various power states (Tick)
system.mem_ctrls48.power_state.pwrStateResidencyTicks::UNDEFINED   2147483750                       # Cumulative time (in ticks) in various power states (Tick)
system.mem_ctrls49.power_state.pwrStateResidencyTicks::UNDEFINED   2147483750                       # Cumulative time (in ticks) in various power states (Tick)
system.mem_ctrls5.power_state.pwrStateResidencyTicks::UNDEFINED   2147483750                       # Cumulative time (in ticks) in various power states (Tick)
system.mem_ctrls50.power_state.pwrStateResidencyTicks::UNDEFINED   2147483750                       # Cumulative time (in ticks) in various power states (Tick)
system.mem_ctrls51.power_state.pwrStateResidencyTicks::UNDEFINED   2147483750                       # Cumulative time (in ticks) in various power states (Tick)
system.mem_ctrls52.power_state.pwrStateResidencyTicks::UNDEFINED   2147483750                       # Cumulative time (in ticks) in various power states (Tick)
system.mem_ctrls53.power_state.pwrStateResidencyTicks::UNDEFINED   2147483750                       # Cumulative time (in ticks) in various power states (Tick)
system.mem_ctrls54.power_state.pwrStateResidencyTicks::UNDEFINED   2147483750                       # Cumulative time (in ticks) in various power states (Tick)
system.mem_ctrls55.power_state.pwrStateResidencyTicks::UNDEFINED   2147483750                       # Cumulative time (in ticks) in various power states (Tick)
system.mem_ctrls56.power_state.pwrStateResidencyTicks::UNDEFINED   2147483750                       # Cumulative time (in ticks) in various power states (Tick)
system.mem_ctrls57.power_state.pwrStateResidencyTicks::UNDEFINED   2147483750                       # Cumulative time (in ticks) in various power states (Tick)
system.mem_ctrls58.power_state.pwrStateResidencyTicks::UNDEFINED   2147483750                       # Cumulative time (in ticks) in various power states (Tick)
system.mem_ctrls59.power_state.pwrStateResidencyTicks::UNDEFINED   2147483750                       # Cumulative time (in ticks) in various power states (Tick)
system.mem_ctrls6.power_state.pwrStateResidencyTicks::UNDEFINED   2147483750                       # Cumulative time (in ticks) in various power states (Tick)
system.mem_ctrls60.power_state.pwrStateResidencyTicks::UNDEFINED   2147483750                       # Cumulative time (in ticks) in various power states (Tick)
system.mem_ctrls61.power_state.pwrStateResidencyTicks::UNDEFINED   2147483750                       # Cumulative time (in ticks) in various power states (Tick)
system.mem_ctrls62.power_state.pwrStateResidencyTicks::UNDEFINED   2147483750                       # Cumulative time (in ticks) in various power states (Tick)
system.mem_ctrls63.power_state.pwrStateResidencyTicks::UNDEFINED   2147483750                       # Cumulative time (in ticks) in various power states (Tick)
system.mem_ctrls7.power_state.pwrStateResidencyTicks::UNDEFINED   2147483750                       # Cumulative time (in ticks) in various power states (Tick)
system.mem_ctrls8.power_state.pwrStateResidencyTicks::UNDEFINED   2147483750                       # Cumulative time (in ticks) in various power states (Tick)
system.mem_ctrls9.power_state.pwrStateResidencyTicks::UNDEFINED   2147483750                       # Cumulative time (in ticks) in various power states (Tick)
system.ruby.m_outstandReqHistSeqr::bucket_size            1                       (Unspecified)
system.ruby.m_outstandReqHistSeqr::max_bucket            9                       (Unspecified)
system.ruby.m_outstandReqHistSeqr::samples     54907386                       (Unspecified)
system.ruby.m_outstandReqHistSeqr::mean             1                       (Unspecified)
system.ruby.m_outstandReqHistSeqr::gmean            1                       (Unspecified)
system.ruby.m_outstandReqHistSeqr        |           0      0.00%      0.00% |    54907386    100.00%    100.00% |           0      0.00%    100.00% |           0      0.00%    100.00% |           0      0.00%    100.00% |           0      0.00%    100.00% |           0      0.00%    100.00% |           0      0.00%    100.00% |           0      0.00%    100.00% |           0      0.00%    100.00% (Unspecified)
system.ruby.m_outstandReqHistSeqr::total     54907386                       (Unspecified)
system.ruby.m_latencyHistSeqr::bucket_size            1                       (Unspecified)
system.ruby.m_latencyHistSeqr::max_bucket            9                       (Unspecified)
system.ruby.m_latencyHistSeqr::samples       54907380                       (Unspecified)
system.ruby.m_latencyHistSeqr::mean                 1                       (Unspecified)
system.ruby.m_latencyHistSeqr::gmean                1                       (Unspecified)
system.ruby.m_latencyHistSeqr            |           0      0.00%      0.00% |    54907380    100.00%    100.00% |           0      0.00%    100.00% |           0      0.00%    100.00% |           0      0.00%    100.00% |           0      0.00%    100.00% |           0      0.00%    100.00% |           0      0.00%    100.00% |           0      0.00%    100.00% |           0      0.00%    100.00% (Unspecified)
system.ruby.m_latencyHistSeqr::total         54907380                       (Unspecified)
system.ruby.m_hitLatencyHistSeqr::bucket_size            1                       (Unspecified)
system.ruby.m_hitLatencyHistSeqr::max_bucket            9                       (Unspecified)
system.ruby.m_hitLatencyHistSeqr::samples     54907380                       (Unspecified)
system.ruby.m_hitLatencyHistSeqr::mean              1                       (Unspecified)
system.ruby.m_hitLatencyHistSeqr::gmean             1                       (Unspecified)
system.ruby.m_hitLatencyHistSeqr         |           0      0.00%      0.00% |    54907380    100.00%    100.00% |           0      0.00%    100.00% |           0      0.00%    100.00% |           0      0.00%    100.00% |           0      0.00%    100.00% |           0      0.00%    100.00% |           0      0.00%    100.00% |           0      0.00%    100.00% |           0      0.00%    100.00% (Unspecified)
system.ruby.m_hitLatencyHistSeqr::total      54907380                       (Unspecified)
system.ruby.Directory_Controller.Receive_Request |      285317      1.56%      1.56% |      286073      1.56%      3.12% |      286241      1.56%      4.69% |      286552      1.57%      6.25% |      286109      1.56%      7.82% |      285337      1.56%      9.37% |      284902      1.56%     10.93% |      286154      1.56%     12.49% |      286694      1.57%     14.06% |      286364      1.56%     15.63% |      285998      1.56%     17.19% |      286875      1.57%     18.76% |      286040      1.56%     20.32% |      285400      1.56%     21.88% |      284840      1.56%     23.43% |      286450      1.57%     25.00% |      285472      1.56%     26.56% |      286455      1.57%     28.12% |      286424      1.57%     29.69% |      286014      1.56%     31.25% |      286465      1.57%     32.82% |      285839      1.56%     34.38% |      285270      1.56%     35.94% |      285624      1.56%     37.50% |      285635      1.56%     39.06% |      285127      1.56%     40.62% |      286623      1.57%     42.18% |      285252      1.56%     43.74% |      286610      1.57%     45.31% |      284939      1.56%     46.87% |      287147      1.57%     48.43% |      286113      1.56%     50.00% |      285714      1.56%     51.56% |      286176      1.56%     53.12% |      286148      1.56%     54.69% |      286324      1.56%     56.25% |      286436      1.57%     57.82% |      285991      1.56%     59.38% |      285698      1.56%     60.94% |      285926      1.56%     62.50% |      285487      1.56%     64.06% |      285576      1.56%     65.62% |      286510      1.57%     67.19% |      285838      1.56%     68.75% |      286593      1.57%     70.32% |      286678      1.57%     71.88% |      285295      1.56%     73.44% |      285933      1.56%     75.00% |      284940      1.56%     76.56% |      286594      1.57%     78.13% |      286256      1.56%     79.69% |      286179      1.56%     81.25% |      285798      1.56%     82.82% |      286106      1.56%     84.38% |      285365      1.56%     85.94% |      285582      1.56%     87.50% |      285946      1.56%     89.06% |      284674      1.56%     90.62% |      286044      1.56%     92.18% |      286140      1.56%     93.74% |      286454      1.57%     95.31% |      286402      1.56%     96.87% |      286024      1.56%     98.44% |      286365      1.56%    100.00% (Unspecified)
system.ruby.Directory_Controller.Receive_Request::total     18301547                       (Unspecified)
system.ruby.Directory_Controller.Receive_Forward |      286316      1.56%      1.56% |      285964      1.56%      3.13% |      285909      1.56%      4.69% |      286389      1.56%      6.25% |      286791      1.57%      7.82% |      284886      1.56%      9.38% |      286081      1.56%     10.94% |      284833      1.56%     12.50% |      287002      1.57%     14.07% |      285871      1.56%     15.63% |      286840      1.57%     17.20% |      285631      1.56%     18.76% |      284681      1.56%     20.31% |      286580      1.57%     21.88% |      286158      1.56%     23.44% |      286480      1.57%     25.01% |      286688      1.57%     26.57% |      286519      1.57%     28.14% |      285384      1.56%     29.70% |      286140      1.56%     31.26% |      285609      1.56%     32.82% |      286388      1.56%     34.39% |      284981      1.56%     35.95% |      286389      1.56%     37.51% |      286302      1.56%     39.08% |      285705      1.56%     40.64% |      286480      1.57%     42.20% |      285252      1.56%     43.76% |      284651      1.56%     45.32% |      285933      1.56%     46.88% |      286511      1.57%     48.44% |      285659      1.56%     50.01% |      285787      1.56%     51.57% |      285376      1.56%     53.13% |      286124      1.56%     54.69% |      285790      1.56%     56.25% |      285532      1.56%     57.81% |      287007      1.57%     59.38% |      286600      1.57%     60.95% |      286332      1.56%     62.51% |      286194      1.56%     64.07% |      285450      1.56%     65.63% |      286472      1.57%     67.20% |      285108      1.56%     68.76% |      285448      1.56%     70.32% |      287098      1.57%     71.89% |      286102      1.56%     73.45% |      285718      1.56%     75.01% |      285565      1.56%     76.57% |      285930      1.56%     78.13% |      284963      1.56%     79.69% |      286511      1.57%     81.26% |      285405      1.56%     82.82% |      286098      1.56%     84.38% |      285623      1.56%     85.94% |      285677      1.56%     87.50% |      285691      1.56%     89.06% |      285024      1.56%     90.62% |      286292      1.56%     92.18% |      285253      1.56%     93.74% |      286145      1.56%     95.31% |      286821      1.57%     96.87% |      286257      1.56%     98.44% |      285744      1.56%    100.00% (Unspecified)
system.ruby.Directory_Controller.Receive_Forward::total     18300140                       (Unspecified)
system.ruby.Directory_Controller.Receive_Response |      166171      1.56%      1.56% |      167142      1.57%      3.12% |      166887      1.56%      4.69% |      166892      1.56%      6.25% |      166447      1.56%      7.81% |      166594      1.56%      9.38% |      165746      1.55%     10.93% |      166331      1.56%     12.49% |      165782      1.55%     14.04% |      166601      1.56%     15.61% |      165917      1.56%     17.16% |      166978      1.57%     18.73% |      166640      1.56%     20.29% |      166739      1.56%     21.85% |      166131      1.56%     23.41% |      167018      1.57%     24.98% |      166852      1.56%     26.54% |      166510      1.56%     28.10% |      167707      1.57%     29.67% |      166500      1.56%     31.24% |      167085      1.57%     32.80% |      166711      1.56%     34.36% |      166433      1.56%     35.92% |      166761      1.56%     37.49% |      166796      1.56%     39.05% |      167114      1.57%     40.62% |      166932      1.57%     42.18% |      166731      1.56%     43.75% |      166171      1.56%     45.31% |      166342      1.56%     46.86% |      166054      1.56%     48.42% |      166296      1.56%     49.98% |      167100      1.57%     51.55% |      166412      1.56%     53.11% |      166542      1.56%     54.67% |      166570      1.56%     56.23% |      166113      1.56%     57.79% |      166595      1.56%     59.35% |      166883      1.56%     60.91% |      166770      1.56%     62.48% |      167272      1.57%     64.05% |      166944      1.57%     65.61% |      167141      1.57%     67.18% |      166298      1.56%     68.74% |      167568      1.57%     70.31% |      166803      1.56%     71.87% |      166990      1.57%     73.44% |      166767      1.56%     75.00% |      166371      1.56%     76.56% |      166611      1.56%     78.12% |      166464      1.56%     79.68% |      166703      1.56%     81.25% |      167166      1.57%     82.81% |      166755      1.56%     84.38% |      166788      1.56%     85.94% |      167728      1.57%     87.51% |      166266      1.56%     89.07% |      166957      1.57%     90.64% |      166896      1.56%     92.20% |      166263      1.56%     93.76% |      166766      1.56%     95.32% |      165848      1.55%     96.88% |      165910      1.56%     98.44% |      166907      1.56%    100.00% (Unspecified)
system.ruby.Directory_Controller.Receive_Response::total     10666178                       (Unspecified)
system.ruby.Directory_Controller.I.Receive_Request |      285317      1.56%      1.56% |      286073      1.56%      3.12% |      286241      1.56%      4.69% |      286552      1.57%      6.25% |      286109      1.56%      7.82% |      285337      1.56%      9.37% |      284902      1.56%     10.93% |      286154      1.56%     12.49% |      286694      1.57%     14.06% |      286364      1.56%     15.63% |      285998      1.56%     17.19% |      286875      1.57%     18.76% |      286040      1.56%     20.32% |      285400      1.56%     21.88% |      284840      1.56%     23.43% |      286450      1.57%     25.00% |      285472      1.56%     26.56% |      286455      1.57%     28.12% |      286424      1.57%     29.69% |      286014      1.56%     31.25% |      286465      1.57%     32.82% |      285839      1.56%     34.38% |      285270      1.56%     35.94% |      285624      1.56%     37.50% |      285635      1.56%     39.06% |      285127      1.56%     40.62% |      286623      1.57%     42.18% |      285252      1.56%     43.74% |      286610      1.57%     45.31% |      284939      1.56%     46.87% |      287147      1.57%     48.43% |      286113      1.56%     50.00% |      285714      1.56%     51.56% |      286176      1.56%     53.12% |      286148      1.56%     54.69% |      286324      1.56%     56.25% |      286436      1.57%     57.82% |      285991      1.56%     59.38% |      285698      1.56%     60.94% |      285926      1.56%     62.50% |      285487      1.56%     64.06% |      285576      1.56%     65.62% |      286510      1.57%     67.19% |      285838      1.56%     68.75% |      286593      1.57%     70.32% |      286678      1.57%     71.88% |      285295      1.56%     73.44% |      285933      1.56%     75.00% |      284940      1.56%     76.56% |      286594      1.57%     78.13% |      286256      1.56%     79.69% |      286179      1.56%     81.25% |      285798      1.56%     82.82% |      286106      1.56%     84.38% |      285365      1.56%     85.94% |      285582      1.56%     87.50% |      285946      1.56%     89.06% |      284674      1.56%     90.62% |      286044      1.56%     92.18% |      286140      1.56%     93.74% |      286454      1.57%     95.31% |      286402      1.56%     96.87% |      286024      1.56%     98.44% |      286365      1.56%    100.00% (Unspecified)
system.ruby.Directory_Controller.I.Receive_Request::total     18301547                       (Unspecified)
system.ruby.Directory_Controller.I.Receive_Forward |      286316      1.56%      1.56% |      285964      1.56%      3.13% |      285909      1.56%      4.69% |      286389      1.56%      6.25% |      286791      1.57%      7.82% |      284886      1.56%      9.38% |      286081      1.56%     10.94% |      284833      1.56%     12.50% |      287002      1.57%     14.07% |      285871      1.56%     15.63% |      286840      1.57%     17.20% |      285631      1.56%     18.76% |      284681      1.56%     20.31% |      286580      1.57%     21.88% |      286158      1.56%     23.44% |      286480      1.57%     25.01% |      286688      1.57%     26.57% |      286519      1.57%     28.14% |      285384      1.56%     29.70% |      286140      1.56%     31.26% |      285609      1.56%     32.82% |      286388      1.56%     34.39% |      284981      1.56%     35.95% |      286389      1.56%     37.51% |      286302      1.56%     39.08% |      285705      1.56%     40.64% |      286480      1.57%     42.20% |      285252      1.56%     43.76% |      284651      1.56%     45.32% |      285933      1.56%     46.88% |      286511      1.57%     48.44% |      285659      1.56%     50.01% |      285787      1.56%     51.57% |      285376      1.56%     53.13% |      286124      1.56%     54.69% |      285790      1.56%     56.25% |      285532      1.56%     57.81% |      287007      1.57%     59.38% |      286600      1.57%     60.95% |      286332      1.56%     62.51% |      286194      1.56%     64.07% |      285450      1.56%     65.63% |      286472      1.57%     67.20% |      285108      1.56%     68.76% |      285448      1.56%     70.32% |      287098      1.57%     71.89% |      286102      1.56%     73.45% |      285718      1.56%     75.01% |      285565      1.56%     76.57% |      285930      1.56%     78.13% |      284963      1.56%     79.69% |      286511      1.57%     81.26% |      285405      1.56%     82.82% |      286098      1.56%     84.38% |      285623      1.56%     85.94% |      285677      1.56%     87.50% |      285691      1.56%     89.06% |      285024      1.56%     90.62% |      286292      1.56%     92.18% |      285253      1.56%     93.74% |      286145      1.56%     95.31% |      286821      1.57%     96.87% |      286257      1.56%     98.44% |      285744      1.56%    100.00% (Unspecified)
system.ruby.Directory_Controller.I.Receive_Forward::total     18300140                       (Unspecified)
system.ruby.Directory_Controller.I.Receive_Response |      166171      1.56%      1.56% |      167142      1.57%      3.12% |      166887      1.56%      4.69% |      166892      1.56%      6.25% |      166447      1.56%      7.81% |      166594      1.56%      9.38% |      165746      1.55%     10.93% |      166331      1.56%     12.49% |      165782      1.55%     14.04% |      166601      1.56%     15.61% |      165917      1.56%     17.16% |      166978      1.57%     18.73% |      166640      1.56%     20.29% |      166739      1.56%     21.85% |      166131      1.56%     23.41% |      167018      1.57%     24.98% |      166852      1.56%     26.54% |      166510      1.56%     28.10% |      167707      1.57%     29.67% |      166500      1.56%     31.24% |      167085      1.57%     32.80% |      166711      1.56%     34.36% |      166433      1.56%     35.92% |      166761      1.56%     37.49% |      166796      1.56%     39.05% |      167114      1.57%     40.62% |      166932      1.57%     42.18% |      166731      1.56%     43.75% |      166171      1.56%     45.31% |      166342      1.56%     46.86% |      166054      1.56%     48.42% |      166296      1.56%     49.98% |      167100      1.57%     51.55% |      166412      1.56%     53.11% |      166542      1.56%     54.67% |      166570      1.56%     56.23% |      166113      1.56%     57.79% |      166595      1.56%     59.35% |      166883      1.56%     60.91% |      166770      1.56%     62.48% |      167272      1.57%     64.05% |      166944      1.57%     65.61% |      167141      1.57%     67.18% |      166298      1.56%     68.74% |      167568      1.57%     70.31% |      166803      1.56%     71.87% |      166990      1.57%     73.44% |      166767      1.56%     75.00% |      166371      1.56%     76.56% |      166611      1.56%     78.12% |      166464      1.56%     79.68% |      166703      1.56%     81.25% |      167166      1.57%     82.81% |      166755      1.56%     84.38% |      166788      1.56%     85.94% |      167728      1.57%     87.51% |      166266      1.56%     89.07% |      166957      1.57%     90.64% |      166896      1.56%     92.20% |      166263      1.56%     93.76% |      166766      1.56%     95.32% |      165848      1.55%     96.88% |      165910      1.56%     98.44% |      166907      1.56%    100.00% (Unspecified)
system.ruby.Directory_Controller.I.Receive_Response::total     10666178                       (Unspecified)
system.ruby.L1Cache_Controller.Request   |      284601      1.56%      1.56% |      285313      1.56%      3.11% |      286291      1.56%      4.68% |      285773      1.56%      6.24% |      286155      1.56%      7.80% |      287036      1.57%      9.37% |      285606      1.56%     10.93% |      286080      1.56%     12.50% |      285913      1.56%     14.06% |      286351      1.56%     15.62% |      286214      1.56%     17.19% |      285314      1.56%     18.75% |      286122      1.56%     20.31% |      286519      1.57%     21.87% |      285675      1.56%     23.43% |      284794      1.56%     24.99% |      285556      1.56%     26.55% |      286598      1.57%     28.12% |      285138      1.56%     29.68% |      286216      1.56%     31.24% |      285491      1.56%     32.80% |      286882      1.57%     34.37% |      285815      1.56%     35.93% |      285336      1.56%     37.49% |      286587      1.57%     39.05% |      285566      1.56%     40.61% |      286135      1.56%     42.18% |      285562      1.56%     43.74% |      286044      1.56%     45.30% |      285624      1.56%     46.86% |      286111      1.56%     48.42% |      285716      1.56%     49.99% |      285664      1.56%     51.55% |      285534      1.56%     53.11% |      285867      1.56%     54.67% |      285745      1.56%     56.23% |      286731      1.57%     57.80% |      285892      1.56%     59.36% |      285464      1.56%     60.92% |      286673      1.57%     62.48% |      286034      1.56%     64.05% |      286859      1.57%     65.61% |      286174      1.56%     67.18% |      286521      1.57%     68.74% |      285948      1.56%     70.31% |      285167      1.56%     71.86% |      286651      1.57%     73.43% |      285990      1.56%     74.99% |      285974      1.56%     76.56% |      286052      1.56%     78.12% |      286345      1.56%     79.68% |      285711      1.56%     81.24% |      286470      1.57%     82.81% |      286335      1.56%     84.37% |      285892      1.56%     85.94% |      286384      1.56%     87.50% |      285800      1.56%     89.06% |      286133      1.56%     90.63% |      285922      1.56%     92.19% |      285982      1.56%     93.75% |      286082      1.56%     95.31% |      285946      1.56%     96.88% |      286270      1.56%     98.44% |      285258      1.56%    100.00% (Unspecified)
system.ruby.L1Cache_Controller.Request::total     18301604                       (Unspecified)
system.ruby.L1Cache_Controller.Forward   |      285899      1.56%      1.56% |      285914      1.56%      3.12% |      286054      1.56%      4.69% |      285036      1.56%      6.25% |      286018      1.56%      7.81% |      285842      1.56%      9.37% |      285929      1.56%     10.93% |      286657      1.57%     12.50% |      286317      1.56%     14.06% |      285530      1.56%     15.62% |      285909      1.56%     17.19% |      286265      1.56%     18.75% |      286140      1.56%     20.31% |      284992      1.56%     21.87% |      285928      1.56%     23.43% |      286239      1.56%     25.00% |      285315      1.56%     26.56% |      286324      1.56%     28.12% |      286218      1.56%     29.69% |      286334      1.56%     31.25% |      286568      1.57%     32.82% |      285383      1.56%     34.38% |      286052      1.56%     35.94% |      285561      1.56%     37.50% |      286462      1.57%     39.06% |      286371      1.56%     40.63% |      285159      1.56%     42.19% |      285226      1.56%     43.75% |      286695      1.57%     45.31% |      286056      1.56%     46.88% |      285756      1.56%     48.44% |      286555      1.57%     50.00% |      285733      1.56%     51.56% |      285438      1.56%     53.12% |      285676      1.56%     54.69% |      285908      1.56%     56.25% |      286115      1.56%     57.81% |      286735      1.57%     59.38% |      285308      1.56%     60.94% |      285958      1.56%     62.50% |      285325      1.56%     64.06% |      285561      1.56%     65.62% |      285677      1.56%     67.18% |      286657      1.57%     68.75% |      286988      1.57%     70.31% |      286759      1.57%     71.88% |      285967      1.56%     73.44% |      285637      1.56%     75.01% |      285624      1.56%     76.57% |      286146      1.56%     78.13% |      286136      1.56%     79.69% |      285745      1.56%     81.25% |      285564      1.56%     82.82% |      286458      1.57%     84.38% |      284909      1.56%     85.94% |      286739      1.57%     87.50% |      285860      1.56%     89.07% |      285737      1.56%     90.63% |      285372      1.56%     92.19% |      285804      1.56%     93.75% |      285561      1.56%     95.31% |      286148      1.56%     96.87% |      285940      1.56%     98.44% |      286318      1.56%    100.00% (Unspecified)
system.ruby.L1Cache_Controller.Forward::total     18300207                       (Unspecified)
system.ruby.L1Cache_Controller.Response  |      285875      1.56%      1.56% |      286174      1.56%      3.12% |      287002      1.57%      4.69% |      286315      1.56%      6.26% |      285809      1.56%      7.82% |      286512      1.57%      9.38% |      285793      1.56%     10.94% |      286470      1.56%     12.51% |      286626      1.57%     14.08% |      286174      1.56%     15.64% |      286297      1.56%     17.20% |      286940      1.57%     18.77% |      286613      1.57%     20.34% |      286926      1.57%     21.90% |      285004      1.56%     23.46% |      286389      1.56%     25.02% |      286173      1.56%     26.59% |      286236      1.56%     28.15% |      287187      1.57%     29.72% |      285772      1.56%     31.28% |      285724      1.56%     32.84% |      286669      1.57%     34.41% |      285842      1.56%     35.97% |      286209      1.56%     37.53% |      285089      1.56%     39.09% |      286576      1.57%     40.66% |      286651      1.57%     42.22% |      286513      1.57%     43.79% |      286166      1.56%     45.35% |      286021      1.56%     46.91% |      285493      1.56%     48.47% |      285150      1.56%     50.03% |      286071      1.56%     51.59% |      286662      1.57%     53.16% |      285860      1.56%     54.72% |      285851      1.56%     56.28% |      286759      1.57%     57.85% |      285900      1.56%     59.41% |      285857      1.56%     60.97% |      285723      1.56%     62.53% |      286490      1.57%     64.10% |      285529      1.56%     65.66% |      285429      1.56%     67.22% |      285071      1.56%     68.77% |      285693      1.56%     70.34% |      286039      1.56%     71.90% |      286411      1.56%     73.46% |      285400      1.56%     75.02% |      285527      1.56%     76.58% |      285444      1.56%     78.14% |      285981      1.56%     79.70% |      285546      1.56%     81.26% |      285344      1.56%     82.82% |      285090      1.56%     84.38% |      285892      1.56%     85.94% |      285574      1.56%     87.50% |      286265      1.56%     89.06% |      286450      1.56%     90.63% |      286030      1.56%     92.19% |      285635      1.56%     93.75% |      286740      1.57%     95.32% |      286456      1.56%     96.88% |      285629      1.56%     98.44% |      284831      1.56%    100.00% (Unspecified)
system.ruby.L1Cache_Controller.Response::total     18305569                       (Unspecified)
system.ruby.L1Cache_Controller.I.Request |      284601      1.56%      1.56% |      285313      1.56%      3.11% |      286291      1.56%      4.68% |      285773      1.56%      6.24% |      286155      1.56%      7.80% |      287036      1.57%      9.37% |      285606      1.56%     10.93% |      286080      1.56%     12.50% |      285913      1.56%     14.06% |      286351      1.56%     15.62% |      286214      1.56%     17.19% |      285314      1.56%     18.75% |      286122      1.56%     20.31% |      286519      1.57%     21.87% |      285675      1.56%     23.43% |      284794      1.56%     24.99% |      285556      1.56%     26.55% |      286598      1.57%     28.12% |      285138      1.56%     29.68% |      286216      1.56%     31.24% |      285491      1.56%     32.80% |      286882      1.57%     34.37% |      285815      1.56%     35.93% |      285336      1.56%     37.49% |      286587      1.57%     39.05% |      285566      1.56%     40.61% |      286135      1.56%     42.18% |      285562      1.56%     43.74% |      286044      1.56%     45.30% |      285624      1.56%     46.86% |      286111      1.56%     48.42% |      285716      1.56%     49.99% |      285664      1.56%     51.55% |      285534      1.56%     53.11% |      285867      1.56%     54.67% |      285745      1.56%     56.23% |      286731      1.57%     57.80% |      285892      1.56%     59.36% |      285464      1.56%     60.92% |      286673      1.57%     62.48% |      286034      1.56%     64.05% |      286859      1.57%     65.61% |      286174      1.56%     67.18% |      286521      1.57%     68.74% |      285948      1.56%     70.31% |      285167      1.56%     71.86% |      286651      1.57%     73.43% |      285990      1.56%     74.99% |      285974      1.56%     76.56% |      286052      1.56%     78.12% |      286345      1.56%     79.68% |      285711      1.56%     81.24% |      286470      1.57%     82.81% |      286335      1.56%     84.37% |      285892      1.56%     85.94% |      286384      1.56%     87.50% |      285800      1.56%     89.06% |      286133      1.56%     90.63% |      285922      1.56%     92.19% |      285982      1.56%     93.75% |      286082      1.56%     95.31% |      285946      1.56%     96.88% |      286270      1.56%     98.44% |      285258      1.56%    100.00% (Unspecified)
system.ruby.L1Cache_Controller.I.Request::total     18301604                       (Unspecified)
system.ruby.L1Cache_Controller.I.Forward |      285899      1.56%      1.56% |      285914      1.56%      3.12% |      286054      1.56%      4.69% |      285036      1.56%      6.25% |      286018      1.56%      7.81% |      285842      1.56%      9.37% |      285929      1.56%     10.93% |      286657      1.57%     12.50% |      286317      1.56%     14.06% |      285530      1.56%     15.62% |      285909      1.56%     17.19% |      286265      1.56%     18.75% |      286140      1.56%     20.31% |      284992      1.56%     21.87% |      285928      1.56%     23.43% |      286239      1.56%     25.00% |      285315      1.56%     26.56% |      286324      1.56%     28.12% |      286218      1.56%     29.69% |      286334      1.56%     31.25% |      286568      1.57%     32.82% |      285383      1.56%     34.38% |      286052      1.56%     35.94% |      285561      1.56%     37.50% |      286462      1.57%     39.06% |      286371      1.56%     40.63% |      285159      1.56%     42.19% |      285226      1.56%     43.75% |      286695      1.57%     45.31% |      286056      1.56%     46.88% |      285756      1.56%     48.44% |      286555      1.57%     50.00% |      285733      1.56%     51.56% |      285438      1.56%     53.12% |      285676      1.56%     54.69% |      285908      1.56%     56.25% |      286115      1.56%     57.81% |      286735      1.57%     59.38% |      285308      1.56%     60.94% |      285958      1.56%     62.50% |      285325      1.56%     64.06% |      285561      1.56%     65.62% |      285677      1.56%     67.18% |      286657      1.57%     68.75% |      286988      1.57%     70.31% |      286759      1.57%     71.88% |      285967      1.56%     73.44% |      285637      1.56%     75.01% |      285624      1.56%     76.57% |      286146      1.56%     78.13% |      286136      1.56%     79.69% |      285745      1.56%     81.25% |      285564      1.56%     82.82% |      286458      1.57%     84.38% |      284909      1.56%     85.94% |      286739      1.57%     87.50% |      285860      1.56%     89.07% |      285737      1.56%     90.63% |      285372      1.56%     92.19% |      285804      1.56%     93.75% |      285561      1.56%     95.31% |      286148      1.56%     96.87% |      285940      1.56%     98.44% |      286318      1.56%    100.00% (Unspecified)
system.ruby.L1Cache_Controller.I.Forward::total     18300207                       (Unspecified)
system.ruby.L1Cache_Controller.I.Response |      285875      1.56%      1.56% |      286174      1.56%      3.12% |      287002      1.57%      4.69% |      286315      1.56%      6.26% |      285809      1.56%      7.82% |      286512      1.57%      9.38% |      285793      1.56%     10.94% |      286470      1.56%     12.51% |      286626      1.57%     14.08% |      286174      1.56%     15.64% |      286297      1.56%     17.20% |      286940      1.57%     18.77% |      286613      1.57%     20.34% |      286926      1.57%     21.90% |      285004      1.56%     23.46% |      286389      1.56%     25.02% |      286173      1.56%     26.59% |      286236      1.56%     28.15% |      287187      1.57%     29.72% |      285772      1.56%     31.28% |      285724      1.56%     32.84% |      286669      1.57%     34.41% |      285842      1.56%     35.97% |      286209      1.56%     37.53% |      285089      1.56%     39.09% |      286576      1.57%     40.66% |      286651      1.57%     42.22% |      286513      1.57%     43.79% |      286166      1.56%     45.35% |      286021      1.56%     46.91% |      285493      1.56%     48.47% |      285150      1.56%     50.03% |      286071      1.56%     51.59% |      286662      1.57%     53.16% |      285860      1.56%     54.72% |      285851      1.56%     56.28% |      286759      1.57%     57.85% |      285900      1.56%     59.41% |      285857      1.56%     60.97% |      285723      1.56%     62.53% |      286490      1.57%     64.10% |      285529      1.56%     65.66% |      285429      1.56%     67.22% |      285071      1.56%     68.77% |      285693      1.56%     70.34% |      286039      1.56%     71.90% |      286411      1.56%     73.46% |      285400      1.56%     75.02% |      285527      1.56%     76.58% |      285444      1.56%     78.14% |      285981      1.56%     79.70% |      285546      1.56%     81.26% |      285344      1.56%     82.82% |      285090      1.56%     84.38% |      285892      1.56%     85.94% |      285574      1.56%     87.50% |      286265      1.56%     89.06% |      286450      1.56%     90.63% |      286030      1.56%     92.19% |      285635      1.56%     93.75% |      286740      1.57%     95.32% |      286456      1.56%     96.88% |      285629      1.56%     98.44% |      284831      1.56%    100.00% (Unspecified)
system.ruby.L1Cache_Controller.I.Response::total     18305569                       (Unspecified)
system.ruby.RequestType.LD.latency_hist_seqr::bucket_size            1                       (Unspecified)
system.ruby.RequestType.LD.latency_hist_seqr::max_bucket            9                       (Unspecified)
system.ruby.RequestType.LD.latency_hist_seqr::samples     18301604                       (Unspecified)
system.ruby.RequestType.LD.latency_hist_seqr::mean            1                       (Unspecified)
system.ruby.RequestType.LD.latency_hist_seqr::gmean            1                       (Unspecified)
system.ruby.RequestType.LD.latency_hist_seqr |           0      0.00%      0.00% |    18301604    100.00%    100.00% |           0      0.00%    100.00% |           0      0.00%    100.00% |           0      0.00%    100.00% |           0      0.00%    100.00% |           0      0.00%    100.00% |           0      0.00%    100.00% |           0      0.00%    100.00% |           0      0.00%    100.00% (Unspecified)
system.ruby.RequestType.LD.latency_hist_seqr::total     18301604                       (Unspecified)
system.ruby.RequestType.LD.hit_latency_hist_seqr::bucket_size            1                       (Unspecified)
system.ruby.RequestType.LD.hit_latency_hist_seqr::max_bucket            9                       (Unspecified)
system.ruby.RequestType.LD.hit_latency_hist_seqr::samples     18301604                       (Unspecified)
system.ruby.RequestType.LD.hit_latency_hist_seqr::mean            1                       (Unspecified)
system.ruby.RequestType.LD.hit_latency_hist_seqr::gmean            1                       (Unspecified)
system.ruby.RequestType.LD.hit_latency_hist_seqr |           0      0.00%      0.00% |    18301604    100.00%    100.00% |           0      0.00%    100.00% |           0      0.00%    100.00% |           0      0.00%    100.00% |           0      0.00%    100.00% |           0      0.00%    100.00% |           0      0.00%    100.00% |           0      0.00%    100.00% |           0      0.00%    100.00% (Unspecified)
system.ruby.RequestType.LD.hit_latency_hist_seqr::total     18301604                       (Unspecified)
system.ruby.RequestType.ST.latency_hist_seqr::bucket_size            1                       (Unspecified)
system.ruby.RequestType.ST.latency_hist_seqr::max_bucket            9                       (Unspecified)
system.ruby.RequestType.ST.latency_hist_seqr::samples     18305569                       (Unspecified)
system.ruby.RequestType.ST.latency_hist_seqr::mean            1                       (Unspecified)
system.ruby.RequestType.ST.latency_hist_seqr::gmean            1                       (Unspecified)
system.ruby.RequestType.ST.latency_hist_seqr |           0      0.00%      0.00% |    18305569    100.00%    100.00% |           0      0.00%    100.00% |           0      0.00%    100.00% |           0      0.00%    100.00% |           0      0.00%    100.00% |           0      0.00%    100.00% |           0      0.00%    100.00% |           0      0.00%    100.00% |           0      0.00%    100.00% (Unspecified)
system.ruby.RequestType.ST.latency_hist_seqr::total     18305569                       (Unspecified)
system.ruby.RequestType.ST.hit_latency_hist_seqr::bucket_size            1                       (Unspecified)
system.ruby.RequestType.ST.hit_latency_hist_seqr::max_bucket            9                       (Unspecified)
system.ruby.RequestType.ST.hit_latency_hist_seqr::samples     18305569                       (Unspecified)
system.ruby.RequestType.ST.hit_latency_hist_seqr::mean            1                       (Unspecified)
system.ruby.RequestType.ST.hit_latency_hist_seqr::gmean            1                       (Unspecified)
system.ruby.RequestType.ST.hit_latency_hist_seqr |           0      0.00%      0.00% |    18305569    100.00%    100.00% |           0      0.00%    100.00% |           0      0.00%    100.00% |           0      0.00%    100.00% |           0      0.00%    100.00% |           0      0.00%    100.00% |           0      0.00%    100.00% |           0      0.00%    100.00% |           0      0.00%    100.00% (Unspecified)
system.ruby.RequestType.ST.hit_latency_hist_seqr::total     18305569                       (Unspecified)
system.ruby.RequestType.IFETCH.latency_hist_seqr::bucket_size            1                       (Unspecified)
system.ruby.RequestType.IFETCH.latency_hist_seqr::max_bucket            9                       (Unspecified)
system.ruby.RequestType.IFETCH.latency_hist_seqr::samples     18300207                       (Unspecified)
system.ruby.RequestType.IFETCH.latency_hist_seqr::mean            1                       (Unspecified)
system.ruby.RequestType.IFETCH.latency_hist_seqr::gmean            1                       (Unspecified)
system.ruby.RequestType.IFETCH.latency_hist_seqr |           0      0.00%      0.00% |    18300207    100.00%    100.00% |           0      0.00%    100.00% |           0      0.00%    100.00% |           0      0.00%    100.00% |           0      0.00%    100.00% |           0      0.00%    100.00% |           0      0.00%    100.00% |           0      0.00%    100.00% |           0      0.00%    100.00% (Unspecified)
system.ruby.RequestType.IFETCH.latency_hist_seqr::total     18300207                       (Unspecified)
system.ruby.RequestType.IFETCH.hit_latency_hist_seqr::bucket_size            1                       (Unspecified)
system.ruby.RequestType.IFETCH.hit_latency_hist_seqr::max_bucket            9                       (Unspecified)
system.ruby.RequestType.IFETCH.hit_latency_hist_seqr::samples     18300207                       (Unspecified)
system.ruby.RequestType.IFETCH.hit_latency_hist_seqr::mean            1                       (Unspecified)
system.ruby.RequestType.IFETCH.hit_latency_hist_seqr::gmean            1                       (Unspecified)
system.ruby.RequestType.IFETCH.hit_latency_hist_seqr |           0      0.00%      0.00% |    18300207    100.00%    100.00% |           0      0.00%    100.00% |           0      0.00%    100.00% |           0      0.00%    100.00% |           0      0.00%    100.00% |           0      0.00%    100.00% |           0      0.00%    100.00% |           0      0.00%    100.00% |           0      0.00%    100.00% (Unspecified)
system.ruby.RequestType.IFETCH.hit_latency_hist_seqr::total     18300207                       (Unspecified)
system.ruby.clk_domain.clock                      250                       # Clock period in ticks (Tick)
system.ruby.dir_cntrl0.forwardToDir.m_msg_count       286316                       # Number of messages passed the buffer (Count)
system.ruby.dir_cntrl0.forwardToDir.m_buf_msgs     0.033332                       # Average number of messages in buffer ((Count/Tick))
system.ruby.dir_cntrl0.power_state.pwrStateResidencyTicks::UNDEFINED   2147483750                       # Cumulative time (in ticks) in various power states (Tick)
system.ruby.dir_cntrl0.requestToDir.m_msg_count       285317                       # Number of messages passed the buffer (Count)
system.ruby.dir_cntrl0.requestToDir.m_buf_msgs     0.033215                       # Average number of messages in buffer ((Count/Tick))
system.ruby.dir_cntrl0.responseToDir.m_msg_count       166171                       # Number of messages passed the buffer (Count)
system.ruby.dir_cntrl0.responseToDir.m_buf_msgs     0.019345                       # Average number of messages in buffer ((Count/Tick))
system.ruby.dir_cntrl1.forwardToDir.m_msg_count       285964                       # Number of messages passed the buffer (Count)
system.ruby.dir_cntrl1.forwardToDir.m_buf_msgs     0.033291                       # Average number of messages in buffer ((Count/Tick))
system.ruby.dir_cntrl1.power_state.pwrStateResidencyTicks::UNDEFINED   2147483750                       # Cumulative time (in ticks) in various power states (Tick)
system.ruby.dir_cntrl1.requestToDir.m_msg_count       286073                       # Number of messages passed the buffer (Count)
system.ruby.dir_cntrl1.requestToDir.m_buf_msgs     0.033303                       # Average number of messages in buffer ((Count/Tick))
system.ruby.dir_cntrl1.responseToDir.m_msg_count       167142                       # Number of messages passed the buffer (Count)
system.ruby.dir_cntrl1.responseToDir.m_buf_msgs     0.019458                       # Average number of messages in buffer ((Count/Tick))
system.ruby.dir_cntrl10.forwardToDir.m_msg_count       286840                       # Number of messages passed the buffer (Count)
system.ruby.dir_cntrl10.forwardToDir.m_buf_msgs     0.033393                       # Average number of messages in buffer ((Count/Tick))
system.ruby.dir_cntrl10.power_state.pwrStateResidencyTicks::UNDEFINED   2147483750                       # Cumulative time (in ticks) in various power states (Tick)
system.ruby.dir_cntrl10.requestToDir.m_msg_count       285998                       # Number of messages passed the buffer (Count)
system.ruby.dir_cntrl10.requestToDir.m_buf_msgs     0.033295                       # Average number of messages in buffer ((Count/Tick))
system.ruby.dir_cntrl10.responseToDir.m_msg_count       165917                       # Number of messages passed the buffer (Count)
system.ruby.dir_cntrl10.responseToDir.m_buf_msgs     0.019315                       # Average number of messages in buffer ((Count/Tick))
system.ruby.dir_cntrl11.forwardToDir.m_msg_count       285631                       # Number of messages passed the buffer (Count)
system.ruby.dir_cntrl11.forwardToDir.m_buf_msgs     0.033252                       # Average number of messages in buffer ((Count/Tick))
system.ruby.dir_cntrl11.power_state.pwrStateResidencyTicks::UNDEFINED   2147483750                       # Cumulative time (in ticks) in various power states (Tick)
system.ruby.dir_cntrl11.requestToDir.m_msg_count       286875                       # Number of messages passed the buffer (Count)
system.ruby.dir_cntrl11.requestToDir.m_buf_msgs     0.033397                       # Average number of messages in buffer ((Count/Tick))
system.ruby.dir_cntrl11.responseToDir.m_msg_count       166978                       # Number of messages passed the buffer (Count)
system.ruby.dir_cntrl11.responseToDir.m_buf_msgs     0.019439                       # Average number of messages in buffer ((Count/Tick))
system.ruby.dir_cntrl12.forwardToDir.m_msg_count       284681                       # Number of messages passed the buffer (Count)
system.ruby.dir_cntrl12.forwardToDir.m_buf_msgs     0.033141                       # Average number of messages in buffer ((Count/Tick))
system.ruby.dir_cntrl12.power_state.pwrStateResidencyTicks::UNDEFINED   2147483750                       # Cumulative time (in ticks) in various power states (Tick)
system.ruby.dir_cntrl12.requestToDir.m_msg_count       286040                       # Number of messages passed the buffer (Count)
system.ruby.dir_cntrl12.requestToDir.m_buf_msgs     0.033299                       # Average number of messages in buffer ((Count/Tick))
system.ruby.dir_cntrl12.responseToDir.m_msg_count       166640                       # Number of messages passed the buffer (Count)
system.ruby.dir_cntrl12.responseToDir.m_buf_msgs     0.019399                       # Average number of messages in buffer ((Count/Tick))
system.ruby.dir_cntrl13.forwardToDir.m_msg_count       286580                       # Number of messages passed the buffer (Count)
system.ruby.dir_cntrl13.forwardToDir.m_buf_msgs     0.033362                       # Average number of messages in buffer ((Count/Tick))
system.ruby.dir_cntrl13.power_state.pwrStateResidencyTicks::UNDEFINED   2147483750                       # Cumulative time (in ticks) in various power states (Tick)
system.ruby.dir_cntrl13.requestToDir.m_msg_count       285400                       # Number of messages passed the buffer (Count)
system.ruby.dir_cntrl13.requestToDir.m_buf_msgs     0.033225                       # Average number of messages in buffer ((Count/Tick))
system.ruby.dir_cntrl13.responseToDir.m_msg_count       166739                       # Number of messages passed the buffer (Count)
system.ruby.dir_cntrl13.responseToDir.m_buf_msgs     0.019411                       # Average number of messages in buffer ((Count/Tick))
system.ruby.dir_cntrl14.forwardToDir.m_msg_count       286158                       # Number of messages passed the buffer (Count)
system.ruby.dir_cntrl14.forwardToDir.m_buf_msgs     0.033313                       # Average number of messages in buffer ((Count/Tick))
system.ruby.dir_cntrl14.power_state.pwrStateResidencyTicks::UNDEFINED   2147483750                       # Cumulative time (in ticks) in various power states (Tick)
system.ruby.dir_cntrl14.requestToDir.m_msg_count       284840                       # Number of messages passed the buffer (Count)
system.ruby.dir_cntrl14.requestToDir.m_buf_msgs     0.033160                       # Average number of messages in buffer ((Count/Tick))
system.ruby.dir_cntrl14.responseToDir.m_msg_count       166131                       # Number of messages passed the buffer (Count)
system.ruby.dir_cntrl14.responseToDir.m_buf_msgs     0.019340                       # Average number of messages in buffer ((Count/Tick))
system.ruby.dir_cntrl15.forwardToDir.m_msg_count       286480                       # Number of messages passed the buffer (Count)
system.ruby.dir_cntrl15.forwardToDir.m_buf_msgs     0.033351                       # Average number of messages in buffer ((Count/Tick))
system.ruby.dir_cntrl15.power_state.pwrStateResidencyTicks::UNDEFINED   2147483750                       # Cumulative time (in ticks) in various power states (Tick)
system.ruby.dir_cntrl15.requestToDir.m_msg_count       286450                       # Number of messages passed the buffer (Count)
system.ruby.dir_cntrl15.requestToDir.m_buf_msgs     0.033347                       # Average number of messages in buffer ((Count/Tick))
system.ruby.dir_cntrl15.responseToDir.m_msg_count       167018                       # Number of messages passed the buffer (Count)
system.ruby.dir_cntrl15.responseToDir.m_buf_msgs     0.019443                       # Average number of messages in buffer ((Count/Tick))
system.ruby.dir_cntrl16.forwardToDir.m_msg_count       286688                       # Number of messages passed the buffer (Count)
system.ruby.dir_cntrl16.forwardToDir.m_buf_msgs     0.033375                       # Average number of messages in buffer ((Count/Tick))
system.ruby.dir_cntrl16.power_state.pwrStateResidencyTicks::UNDEFINED   2147483750                       # Cumulative time (in ticks) in various power states (Tick)
system.ruby.dir_cntrl16.requestToDir.m_msg_count       285472                       # Number of messages passed the buffer (Count)
system.ruby.dir_cntrl16.requestToDir.m_buf_msgs     0.033233                       # Average number of messages in buffer ((Count/Tick))
system.ruby.dir_cntrl16.responseToDir.m_msg_count       166852                       # Number of messages passed the buffer (Count)
system.ruby.dir_cntrl16.responseToDir.m_buf_msgs     0.019424                       # Average number of messages in buffer ((Count/Tick))
system.ruby.dir_cntrl17.forwardToDir.m_msg_count       286519                       # Number of messages passed the buffer (Count)
system.ruby.dir_cntrl17.forwardToDir.m_buf_msgs     0.033355                       # Average number of messages in buffer ((Count/Tick))
system.ruby.dir_cntrl17.power_state.pwrStateResidencyTicks::UNDEFINED   2147483750                       # Cumulative time (in ticks) in various power states (Tick)
system.ruby.dir_cntrl17.requestToDir.m_msg_count       286455                       # Number of messages passed the buffer (Count)
system.ruby.dir_cntrl17.requestToDir.m_buf_msgs     0.033348                       # Average number of messages in buffer ((Count/Tick))
system.ruby.dir_cntrl17.responseToDir.m_msg_count       166510                       # Number of messages passed the buffer (Count)
system.ruby.dir_cntrl17.responseToDir.m_buf_msgs     0.019384                       # Average number of messages in buffer ((Count/Tick))
system.ruby.dir_cntrl18.forwardToDir.m_msg_count       285384                       # Number of messages passed the buffer (Count)
system.ruby.dir_cntrl18.forwardToDir.m_buf_msgs     0.033223                       # Average number of messages in buffer ((Count/Tick))
system.ruby.dir_cntrl18.power_state.pwrStateResidencyTicks::UNDEFINED   2147483750                       # Cumulative time (in ticks) in various power states (Tick)
system.ruby.dir_cntrl18.requestToDir.m_msg_count       286424                       # Number of messages passed the buffer (Count)
system.ruby.dir_cntrl18.requestToDir.m_buf_msgs     0.033344                       # Average number of messages in buffer ((Count/Tick))
system.ruby.dir_cntrl18.responseToDir.m_msg_count       167707                       # Number of messages passed the buffer (Count)
system.ruby.dir_cntrl18.responseToDir.m_buf_msgs     0.019524                       # Average number of messages in buffer ((Count/Tick))
system.ruby.dir_cntrl19.forwardToDir.m_msg_count       286140                       # Number of messages passed the buffer (Count)
system.ruby.dir_cntrl19.forwardToDir.m_buf_msgs     0.033311                       # Average number of messages in buffer ((Count/Tick))
system.ruby.dir_cntrl19.power_state.pwrStateResidencyTicks::UNDEFINED   2147483750                       # Cumulative time (in ticks) in various power states (Tick)
system.ruby.dir_cntrl19.requestToDir.m_msg_count       286014                       # Number of messages passed the buffer (Count)
system.ruby.dir_cntrl19.requestToDir.m_buf_msgs     0.033296                       # Average number of messages in buffer ((Count/Tick))
system.ruby.dir_cntrl19.responseToDir.m_msg_count       166500                       # Number of messages passed the buffer (Count)
system.ruby.dir_cntrl19.responseToDir.m_buf_msgs     0.019383                       # Average number of messages in buffer ((Count/Tick))
system.ruby.dir_cntrl2.forwardToDir.m_msg_count       285909                       # Number of messages passed the buffer (Count)
system.ruby.dir_cntrl2.forwardToDir.m_buf_msgs     0.033284                       # Average number of messages in buffer ((Count/Tick))
system.ruby.dir_cntrl2.power_state.pwrStateResidencyTicks::UNDEFINED   2147483750                       # Cumulative time (in ticks) in various power states (Tick)
system.ruby.dir_cntrl2.requestToDir.m_msg_count       286241                       # Number of messages passed the buffer (Count)
system.ruby.dir_cntrl2.requestToDir.m_buf_msgs     0.033323                       # Average number of messages in buffer ((Count/Tick))
system.ruby.dir_cntrl2.responseToDir.m_msg_count       166887                       # Number of messages passed the buffer (Count)
system.ruby.dir_cntrl2.responseToDir.m_buf_msgs     0.019428                       # Average number of messages in buffer ((Count/Tick))
system.ruby.dir_cntrl20.forwardToDir.m_msg_count       285609                       # Number of messages passed the buffer (Count)
system.ruby.dir_cntrl20.forwardToDir.m_buf_msgs     0.033249                       # Average number of messages in buffer ((Count/Tick))
system.ruby.dir_cntrl20.power_state.pwrStateResidencyTicks::UNDEFINED   2147483750                       # Cumulative time (in ticks) in various power states (Tick)
system.ruby.dir_cntrl20.requestToDir.m_msg_count       286465                       # Number of messages passed the buffer (Count)
system.ruby.dir_cntrl20.requestToDir.m_buf_msgs     0.033349                       # Average number of messages in buffer ((Count/Tick))
system.ruby.dir_cntrl20.responseToDir.m_msg_count       167085                       # Number of messages passed the buffer (Count)
system.ruby.dir_cntrl20.responseToDir.m_buf_msgs     0.019451                       # Average number of messages in buffer ((Count/Tick))
system.ruby.dir_cntrl21.forwardToDir.m_msg_count       286388                       # Number of messages passed the buffer (Count)
system.ruby.dir_cntrl21.forwardToDir.m_buf_msgs     0.033340                       # Average number of messages in buffer ((Count/Tick))
system.ruby.dir_cntrl21.power_state.pwrStateResidencyTicks::UNDEFINED   2147483750                       # Cumulative time (in ticks) in various power states (Tick)
system.ruby.dir_cntrl21.requestToDir.m_msg_count       285839                       # Number of messages passed the buffer (Count)
system.ruby.dir_cntrl21.requestToDir.m_buf_msgs     0.033276                       # Average number of messages in buffer ((Count/Tick))
system.ruby.dir_cntrl21.responseToDir.m_msg_count       166711                       # Number of messages passed the buffer (Count)
system.ruby.dir_cntrl21.responseToDir.m_buf_msgs     0.019408                       # Average number of messages in buffer ((Count/Tick))
system.ruby.dir_cntrl22.forwardToDir.m_msg_count       284981                       # Number of messages passed the buffer (Count)
system.ruby.dir_cntrl22.forwardToDir.m_buf_msgs     0.033176                       # Average number of messages in buffer ((Count/Tick))
system.ruby.dir_cntrl22.power_state.pwrStateResidencyTicks::UNDEFINED   2147483750                       # Cumulative time (in ticks) in various power states (Tick)
system.ruby.dir_cntrl22.requestToDir.m_msg_count       285270                       # Number of messages passed the buffer (Count)
system.ruby.dir_cntrl22.requestToDir.m_buf_msgs     0.033210                       # Average number of messages in buffer ((Count/Tick))
system.ruby.dir_cntrl22.responseToDir.m_msg_count       166433                       # Number of messages passed the buffer (Count)
system.ruby.dir_cntrl22.responseToDir.m_buf_msgs     0.019375                       # Average number of messages in buffer ((Count/Tick))
system.ruby.dir_cntrl23.forwardToDir.m_msg_count       286389                       # Number of messages passed the buffer (Count)
system.ruby.dir_cntrl23.forwardToDir.m_buf_msgs     0.033340                       # Average number of messages in buffer ((Count/Tick))
system.ruby.dir_cntrl23.power_state.pwrStateResidencyTicks::UNDEFINED   2147483750                       # Cumulative time (in ticks) in various power states (Tick)
system.ruby.dir_cntrl23.requestToDir.m_msg_count       285624                       # Number of messages passed the buffer (Count)
system.ruby.dir_cntrl23.requestToDir.m_buf_msgs     0.033251                       # Average number of messages in buffer ((Count/Tick))
system.ruby.dir_cntrl23.responseToDir.m_msg_count       166761                       # Number of messages passed the buffer (Count)
system.ruby.dir_cntrl23.responseToDir.m_buf_msgs     0.019414                       # Average number of messages in buffer ((Count/Tick))
system.ruby.dir_cntrl24.forwardToDir.m_msg_count       286302                       # Number of messages passed the buffer (Count)
system.ruby.dir_cntrl24.forwardToDir.m_buf_msgs     0.033330                       # Average number of messages in buffer ((Count/Tick))
system.ruby.dir_cntrl24.power_state.pwrStateResidencyTicks::UNDEFINED   2147483750                       # Cumulative time (in ticks) in various power states (Tick)
system.ruby.dir_cntrl24.requestToDir.m_msg_count       285635                       # Number of messages passed the buffer (Count)
system.ruby.dir_cntrl24.requestToDir.m_buf_msgs     0.033252                       # Average number of messages in buffer ((Count/Tick))
system.ruby.dir_cntrl24.responseToDir.m_msg_count       166796                       # Number of messages passed the buffer (Count)
system.ruby.dir_cntrl24.responseToDir.m_buf_msgs     0.019418                       # Average number of messages in buffer ((Count/Tick))
system.ruby.dir_cntrl25.forwardToDir.m_msg_count       285705                       # Number of messages passed the buffer (Count)
system.ruby.dir_cntrl25.forwardToDir.m_buf_msgs     0.033260                       # Average number of messages in buffer ((Count/Tick))
system.ruby.dir_cntrl25.power_state.pwrStateResidencyTicks::UNDEFINED   2147483750                       # Cumulative time (in ticks) in various power states (Tick)
system.ruby.dir_cntrl25.requestToDir.m_msg_count       285127                       # Number of messages passed the buffer (Count)
system.ruby.dir_cntrl25.requestToDir.m_buf_msgs     0.033193                       # Average number of messages in buffer ((Count/Tick))
system.ruby.dir_cntrl25.responseToDir.m_msg_count       167114                       # Number of messages passed the buffer (Count)
system.ruby.dir_cntrl25.responseToDir.m_buf_msgs     0.019455                       # Average number of messages in buffer ((Count/Tick))
system.ruby.dir_cntrl26.forwardToDir.m_msg_count       286480                       # Number of messages passed the buffer (Count)
system.ruby.dir_cntrl26.forwardToDir.m_buf_msgs     0.033351                       # Average number of messages in buffer ((Count/Tick))
system.ruby.dir_cntrl26.power_state.pwrStateResidencyTicks::UNDEFINED   2147483750                       # Cumulative time (in ticks) in various power states (Tick)
system.ruby.dir_cntrl26.requestToDir.m_msg_count       286623                       # Number of messages passed the buffer (Count)
system.ruby.dir_cntrl26.requestToDir.m_buf_msgs     0.033367                       # Average number of messages in buffer ((Count/Tick))
system.ruby.dir_cntrl26.responseToDir.m_msg_count       166932                       # Number of messages passed the buffer (Count)
system.ruby.dir_cntrl26.responseToDir.m_buf_msgs     0.019433                       # Average number of messages in buffer ((Count/Tick))
system.ruby.dir_cntrl27.forwardToDir.m_msg_count       285252                       # Number of messages passed the buffer (Count)
system.ruby.dir_cntrl27.forwardToDir.m_buf_msgs     0.033208                       # Average number of messages in buffer ((Count/Tick))
system.ruby.dir_cntrl27.power_state.pwrStateResidencyTicks::UNDEFINED   2147483750                       # Cumulative time (in ticks) in various power states (Tick)
[...]
system.ruby.network.sankey.vcvn35.vcvn5             0                       (Unspecified)
system.ruby.network.sankey.vcvn35.vcvn6             0                       (Unspecified)
system.ruby.network.sankey.vcvn35.vcvn7             0                       (Unspecified)
system.ruby.network.sankey.vcvn35.vcvn8             0                       (Unspecified)
system.ruby.network.sankey.vcvn35.vcvn9             0                       (Unspecified)
system.ruby.network.sankey.vcvn4.vcvn0        1332301                       (Unspecified)
system.ruby.network.sankey.vcvn4.vcvn1         248868                       (Unspecified)
system.ruby.network.sankey.vcvn4.vcvn10             0                       (Unspecified)
system.ruby.network.sankey.vcvn4.vcvn11            27                       (Unspecified)
system.ruby.network.sankey.vcvn4.vcvn12             0                       (Unspecified)
system.ruby.network.sankey.vcvn4.vcvn13             0                       (Unspecified)
system.ruby.network.sankey.vcvn4.vcvn14             0                       (Unspecified)
system.ruby.network.sankey.vcvn4.vcvn15             0                       (Unspecified)
system.ruby.network.sankey.vcvn4.vcvn16             0                       (Unspecified)
system.ruby.network.sankey.vcvn4.vcvn17             0                       (Unspecified)
system.ruby.network.sankey.vcvn4.vcvn18             0                       (Unspecified)
system.ruby.network.sankey.vcvn4.vcvn19             0                       (Unspecified)
system.ruby.network.sankey.vcvn4.vcvn2          26417                       (Unspecified)
system.ruby.network.sankey.vcvn4.vcvn20             0                       (Unspecified)
system.ruby.network.sankey.vcvn4.vcvn21             0                       (Unspecified)
system.ruby.network.sankey.vcvn4.vcvn22             0                       (Unspecified)
system.ruby.network.sankey.vcvn4.vcvn23             0                       (Unspecified)
system.ruby.network.sankey.vcvn4.vcvn24             0                       (Unspecified)
system.ruby.network.sankey.vcvn4.vcvn25             0                       (Unspecified)
system.ruby.network.sankey.vcvn4.vcvn26             0                       (Unspecified)
system.ruby.network.sankey.vcvn4.vcvn27             0                       (Unspecified)
system.ruby.network.sankey.vcvn4.vcvn28             0                       (Unspecified)
system.ruby.network.sankey.vcvn4.vcvn29             0                       (Unspecified)
system.ruby.network.sankey.vcvn4.vcvn3           1934                       (Unspecified)
system.ruby.network.sankey.vcvn4.vcvn30             0                       (Unspecified)
system.ruby.network.sankey.vcvn4.vcvn31             0                       (Unspecified)
system.ruby.network.sankey.vcvn4.vcvn32             0                       (Unspecified)
system.ruby.network.sankey.vcvn4.vcvn33             0                       (Unspecified)
system.ruby.network.sankey.vcvn4.vcvn34             0                       (Unspecified)
system.ruby.network.sankey.vcvn4.vcvn35             0                       (Unspecified)
system.ruby.network.sankey.vcvn4.vcvn4             81                       (Unspecified)
system.ruby.network.sankey.vcvn4.vcvn5              5                       (Unspecified)
system.ruby.network.sankey.vcvn4.vcvn6              0                       (Unspecified)
system.ruby.network.sankey.vcvn4.vcvn7              0                       (Unspecified)
system.ruby.network.sankey.vcvn4.vcvn8              0                       (Unspecified)
system.ruby.network.sankey.vcvn4.vcvn9              0                       (Unspecified)
system.ruby.network.sankey.vcvn5.vcvn0        1331127                       (Unspecified)
system.ruby.network.sankey.vcvn5.vcvn1         249577                       (Unspecified)
system.ruby.network.sankey.vcvn5.vcvn10             0                       (Unspecified)
system.ruby.network.sankey.vcvn5.vcvn11            29                       (Unspecified)
system.ruby.network.sankey.vcvn5.vcvn12             0                       (Unspecified)
system.ruby.network.sankey.vcvn5.vcvn13             0                       (Unspecified)
system.ruby.network.sankey.vcvn5.vcvn14             0                       (Unspecified)
system.ruby.network.sankey.vcvn5.vcvn15             0                       (Unspecified)
system.ruby.network.sankey.vcvn5.vcvn16             0                       (Unspecified)
system.ruby.network.sankey.vcvn5.vcvn17             0                       (Unspecified)
system.ruby.network.sankey.vcvn5.vcvn18             0                       (Unspecified)
system.ruby.network.sankey.vcvn5.vcvn19             0                       (Unspecified)
system.ruby.network.sankey.vcvn5.vcvn2          26933                       (Unspecified)
system.ruby.network.sankey.vcvn5.vcvn20             0                       (Unspecified)
system.ruby.network.sankey.vcvn5.vcvn21             0                       (Unspecified)
system.ruby.network.sankey.vcvn5.vcvn22             0                       (Unspecified)
system.ruby.network.sankey.vcvn5.vcvn23             0                       (Unspecified)
system.ruby.network.sankey.vcvn5.vcvn24             0                       (Unspecified)
system.ruby.network.sankey.vcvn5.vcvn25             0                       (Unspecified)
system.ruby.network.sankey.vcvn5.vcvn26             0                       (Unspecified)
system.ruby.network.sankey.vcvn5.vcvn27             0                       (Unspecified)
system.ruby.network.sankey.vcvn5.vcvn28             0                       (Unspecified)
system.ruby.network.sankey.vcvn5.vcvn29             0                       (Unspecified)
system.ruby.network.sankey.vcvn5.vcvn3           1862                       (Unspecified)
system.ruby.network.sankey.vcvn5.vcvn30             0                       (Unspecified)
system.ruby.network.sankey.vcvn5.vcvn31             0                       (Unspecified)
system.ruby.network.sankey.vcvn5.vcvn32             0                       (Unspecified)
system.ruby.network.sankey.vcvn5.vcvn33             0                       (Unspecified)
system.ruby.network.sankey.vcvn5.vcvn34             0                       (Unspecified)
system.ruby.network.sankey.vcvn5.vcvn35             0                       (Unspecified)
system.ruby.network.sankey.vcvn5.vcvn4             93                       (Unspecified)
system.ruby.network.sankey.vcvn5.vcvn5              3                       (Unspecified)
system.ruby.network.sankey.vcvn5.vcvn6              0                       (Unspecified)
system.ruby.network.sankey.vcvn5.vcvn7              0                       (Unspecified)
system.ruby.network.sankey.vcvn5.vcvn8              0                       (Unspecified)
system.ruby.network.sankey.vcvn5.vcvn9              0                       (Unspecified)
system.ruby.network.sankey.vcvn6.vcvn0        1331550                       (Unspecified)
system.ruby.network.sankey.vcvn6.vcvn1         249475                       (Unspecified)
system.ruby.network.sankey.vcvn6.vcvn10             1                       (Unspecified)
system.ruby.network.sankey.vcvn6.vcvn11            34                       (Unspecified)
system.ruby.network.sankey.vcvn6.vcvn12             0                       (Unspecified)
system.ruby.network.sankey.vcvn6.vcvn13             0                       (Unspecified)
system.ruby.network.sankey.vcvn6.vcvn14             0                       (Unspecified)
system.ruby.network.sankey.vcvn6.vcvn15             0                       (Unspecified)
system.ruby.network.sankey.vcvn6.vcvn16             0                       (Unspecified)
system.ruby.network.sankey.vcvn6.vcvn17             0                       (Unspecified)
system.ruby.network.sankey.vcvn6.vcvn18             0                       (Unspecified)
system.ruby.network.sankey.vcvn6.vcvn19             0                       (Unspecified)
system.ruby.network.sankey.vcvn6.vcvn2          26630                       (Unspecified)
system.ruby.network.sankey.vcvn6.vcvn20             0                       (Unspecified)
system.ruby.network.sankey.vcvn6.vcvn21             0                       (Unspecified)
system.ruby.network.sankey.vcvn6.vcvn22             0                       (Unspecified)
system.ruby.network.sankey.vcvn6.vcvn23             0                       (Unspecified)
system.ruby.network.sankey.vcvn6.vcvn24             0                       (Unspecified)
system.ruby.network.sankey.vcvn6.vcvn25             0                       (Unspecified)
system.ruby.network.sankey.vcvn6.vcvn26             0                       (Unspecified)
system.ruby.network.sankey.vcvn6.vcvn27             0                       (Unspecified)
system.ruby.network.sankey.vcvn6.vcvn28             0                       (Unspecified)
system.ruby.network.sankey.vcvn6.vcvn29             0                       (Unspecified)
system.ruby.network.sankey.vcvn6.vcvn3           1827                       (Unspecified)
system.ruby.network.sankey.vcvn6.vcvn30             0                       (Unspecified)
system.ruby.network.sankey.vcvn6.vcvn31             0                       (Unspecified)
system.ruby.network.sankey.vcvn6.vcvn32             0                       (Unspecified)
system.ruby.network.sankey.vcvn6.vcvn33             0                       (Unspecified)
system.ruby.network.sankey.vcvn6.vcvn34             0                       (Unspecified)
system.ruby.network.sankey.vcvn6.vcvn35             0                       (Unspecified)
system.ruby.network.sankey.vcvn6.vcvn4            101                       (Unspecified)
system.ruby.network.sankey.vcvn6.vcvn5              1                       (Unspecified)
system.ruby.network.sankey.vcvn6.vcvn6              0                       (Unspecified)
system.ruby.network.sankey.vcvn6.vcvn7              0                       (Unspecified)
system.ruby.network.sankey.vcvn6.vcvn8              0                       (Unspecified)
system.ruby.network.sankey.vcvn6.vcvn9              0                       (Unspecified)
system.ruby.network.sankey.vcvn7.vcvn0        1331487                       (Unspecified)
system.ruby.network.sankey.vcvn7.vcvn1         249360                       (Unspecified)
system.ruby.network.sankey.vcvn7.vcvn10             1                       (Unspecified)
system.ruby.network.sankey.vcvn7.vcvn11            28                       (Unspecified)
system.ruby.network.sankey.vcvn7.vcvn12             0                       (Unspecified)
system.ruby.network.sankey.vcvn7.vcvn13             0                       (Unspecified)
system.ruby.network.sankey.vcvn7.vcvn14             0                       (Unspecified)
system.ruby.network.sankey.vcvn7.vcvn15             0                       (Unspecified)
system.ruby.network.sankey.vcvn7.vcvn16             0                       (Unspecified)
system.ruby.network.sankey.vcvn7.vcvn17             0                       (Unspecified)
system.ruby.network.sankey.vcvn7.vcvn18             0                       (Unspecified)
system.ruby.network.sankey.vcvn7.vcvn19             0                       (Unspecified)
system.ruby.network.sankey.vcvn7.vcvn2          26782                       (Unspecified)
system.ruby.network.sankey.vcvn7.vcvn20             0                       (Unspecified)
system.ruby.network.sankey.vcvn7.vcvn21             0                       (Unspecified)
system.ruby.network.sankey.vcvn7.vcvn22             0                       (Unspecified)
system.ruby.network.sankey.vcvn7.vcvn23             0                       (Unspecified)
system.ruby.network.sankey.vcvn7.vcvn24             0                       (Unspecified)
system.ruby.network.sankey.vcvn7.vcvn25             0                       (Unspecified)
system.ruby.network.sankey.vcvn7.vcvn26             0                       (Unspecified)
system.ruby.network.sankey.vcvn7.vcvn27             0                       (Unspecified)
system.ruby.network.sankey.vcvn7.vcvn28             0                       (Unspecified)
system.ruby.network.sankey.vcvn7.vcvn29             0                       (Unspecified)
system.ruby.network.sankey.vcvn7.vcvn3           1868                       (Unspecified)
system.ruby.network.sankey.vcvn7.vcvn30             0                       (Unspecified)
system.ruby.network.sankey.vcvn7.vcvn31             0                       (Unspecified)
system.ruby.network.sankey.vcvn7.vcvn32             0                       (Unspecified)
system.ruby.network.sankey.vcvn7.vcvn33             0                       (Unspecified)
system.ruby.network.sankey.vcvn7.vcvn34             0                       (Unspecified)
system.ruby.network.sankey.vcvn7.vcvn35             0                       (Unspecified)
system.ruby.network.sankey.vcvn7.vcvn4             89                       (Unspecified)
system.ruby.network.sankey.vcvn7.vcvn5              1                       (Unspecified)
system.ruby.network.sankey.vcvn7.vcvn6              0                       (Unspecified)
system.ruby.network.sankey.vcvn7.vcvn7              0                       (Unspecified)
system.ruby.network.sankey.vcvn7.vcvn8              0                       (Unspecified)
system.ruby.network.sankey.vcvn7.vcvn9              0                       (Unspecified)
system.ruby.network.sankey.vcvn8.vcvn0        1331573                       (Unspecified)
system.ruby.network.sankey.vcvn8.vcvn1         249304                       (Unspecified)
system.ruby.network.sankey.vcvn8.vcvn10             1                       (Unspecified)
system.ruby.network.sankey.vcvn8.vcvn11            27                       (Unspecified)
system.ruby.network.sankey.vcvn8.vcvn12             0                       (Unspecified)
system.ruby.network.sankey.vcvn8.vcvn13             0                       (Unspecified)
system.ruby.network.sankey.vcvn8.vcvn14             0                       (Unspecified)
system.ruby.network.sankey.vcvn8.vcvn15             0                       (Unspecified)
system.ruby.network.sankey.vcvn8.vcvn16             0                       (Unspecified)
system.ruby.network.sankey.vcvn8.vcvn17             0                       (Unspecified)
system.ruby.network.sankey.vcvn8.vcvn18             0                       (Unspecified)
system.ruby.network.sankey.vcvn8.vcvn19             0                       (Unspecified)
system.ruby.network.sankey.vcvn8.vcvn2          26788                       (Unspecified)
system.ruby.network.sankey.vcvn8.vcvn20             0                       (Unspecified)
system.ruby.network.sankey.vcvn8.vcvn21             0                       (Unspecified)
system.ruby.network.sankey.vcvn8.vcvn22             0                       (Unspecified)
system.ruby.network.sankey.vcvn8.vcvn23             0                       (Unspecified)
system.ruby.network.sankey.vcvn8.vcvn24             0                       (Unspecified)
system.ruby.network.sankey.vcvn8.vcvn25             0                       (Unspecified)
system.ruby.network.sankey.vcvn8.vcvn26             0                       (Unspecified)
system.ruby.network.sankey.vcvn8.vcvn27             0                       (Unspecified)
system.ruby.network.sankey.vcvn8.vcvn28             0                       (Unspecified)
system.ruby.network.sankey.vcvn8.vcvn29             0                       (Unspecified)
system.ruby.network.sankey.vcvn8.vcvn3           1827                       (Unspecified)
system.ruby.network.sankey.vcvn8.vcvn30             0                       (Unspecified)
system.ruby.network.sankey.vcvn8.vcvn31             0                       (Unspecified)
system.ruby.network.sankey.vcvn8.vcvn32             0                       (Unspecified)
system.ruby.network.sankey.vcvn8.vcvn33             0                       (Unspecified)
system.ruby.network.sankey.vcvn8.vcvn34             0                       (Unspecified)
system.ruby.network.sankey.vcvn8.vcvn35             0                       (Unspecified)
system.ruby.network.sankey.vcvn8.vcvn4             88                       (Unspecified)
system.ruby.network.sankey.vcvn8.vcvn5              1                       (Unspecified)
system.ruby.network.sankey.vcvn8.vcvn6              0                       (Unspecified)
system.ruby.network.sankey.vcvn8.vcvn7              0                       (Unspecified)
system.ruby.network.sankey.vcvn8.vcvn8              0                       (Unspecified)
system.ruby.network.sankey.vcvn8.vcvn9              0                       (Unspecified)
system.ruby.network.sankey.vcvn9.vcvn0        1331540                       (Unspecified)
system.ruby.network.sankey.vcvn9.vcvn1         249179                       (Unspecified)
system.ruby.network.sankey.vcvn9.vcvn10             1                       (Unspecified)
system.ruby.network.sankey.vcvn9.vcvn11            29                       (Unspecified)
system.ruby.network.sankey.vcvn9.vcvn12             0                       (Unspecified)
system.ruby.network.sankey.vcvn9.vcvn13             0                       (Unspecified)
system.ruby.network.sankey.vcvn9.vcvn14             0                       (Unspecified)
system.ruby.network.sankey.vcvn9.vcvn15             0                       (Unspecified)
system.ruby.network.sankey.vcvn9.vcvn16             0                       (Unspecified)
system.ruby.network.sankey.vcvn9.vcvn17             0                       (Unspecified)
system.ruby.network.sankey.vcvn9.vcvn18             0                       (Unspecified)
system.ruby.network.sankey.vcvn9.vcvn19             0                       (Unspecified)
system.ruby.network.sankey.vcvn9.vcvn2          26799                       (Unspecified)
system.ruby.network.sankey.vcvn9.vcvn20             0                       (Unspecified)
system.ruby.network.sankey.vcvn9.vcvn21             0                       (Unspecified)
system.ruby.network.sankey.vcvn9.vcvn22             0                       (Unspecified)
system.ruby.network.sankey.vcvn9.vcvn23             0                       (Unspecified)
system.ruby.network.sankey.vcvn9.vcvn24             0                       (Unspecified)
system.ruby.network.sankey.vcvn9.vcvn25             0                       (Unspecified)
system.ruby.network.sankey.vcvn9.vcvn26             0                       (Unspecified)
system.ruby.network.sankey.vcvn9.vcvn27             0                       (Unspecified)
system.ruby.network.sankey.vcvn9.vcvn28             0                       (Unspecified)
system.ruby.network.sankey.vcvn9.vcvn29             0                       (Unspecified)
system.ruby.network.sankey.vcvn9.vcvn3           1946                       (Unspecified)
system.ruby.network.sankey.vcvn9.vcvn30             0                       (Unspecified)
system.ruby.network.sankey.vcvn9.vcvn31             0                       (Unspecified)
system.ruby.network.sankey.vcvn9.vcvn32             0                       (Unspecified)
system.ruby.network.sankey.vcvn9.vcvn33             0                       (Unspecified)
system.ruby.network.sankey.vcvn9.vcvn34             0                       (Unspecified)
system.ruby.network.sankey.vcvn9.vcvn35             0                       (Unspecified)
system.ruby.network.sankey.vcvn9.vcvn4            106                       (Unspecified)
system.ruby.network.sankey.vcvn9.vcvn5              1                       (Unspecified)
system.ruby.network.sankey.vcvn9.vcvn6              0                       (Unspecified)
system.ruby.network.sankey.vcvn9.vcvn7              0                       (Unspecified)
system.ruby.network.sankey.vcvn9.vcvn8              0                       (Unspecified)
system.ruby.network.sankey.vcvn9.vcvn9              0                       (Unspecified)

---------- End Simulation Statistics   ----------
