gem5 Simulator System.  https://www.gem5.org
gem5 is copyrighted software; use the --copyright option for details.

gem5 version 22.0.0.2
gem5 compiled Jun 17 2023 14:31:12
gem5 started Nov 18 2023 15:52:55
gem5 executing on mnemosyne24.ecn.purdue.edu, pid 16215
command line: ./build/Garnet_standalone/gem5.fast -d ./synth_outputs/simple/2b/mixed/nndbt_none_2_6_40cpus_4xdirs_4.0GHz/mem/ns_s_scop/0_165/ configs/auto_top/auto_top_synth.py --topology EscapeVirtualNetworks --noi_routers 20 --sim-cycles 2147483647 --injectionrate 0.165 --noc_clk 4.0GHz --sys-clock 4.0GHz --ruby-clock 4.0GHz --noi_clk 3.6GHz --router_map_file configs/topologies/paper_solutions/ns_s_scop.map --flat_vn_map_file configs/topologies/vn_maps_ndbt/ns_s_scop_nndbt_none_2vns.vn --flat_nr_map_file configs/topologies/nr_list_ndbt/ns_s_scop_nndbt.nrl --ruby --mem_or_coh mem --mem-size 320000000 --num-dirs 64 --num-cpus 40 --network garnet --mem-type SimpleMemory --routing-algorithm 2 --use_escape_vns --synth_traffic --vcs-per-vnet 6 --evn_deadlock_partition 4 --evn_n_deadlock_free 1 --evn_min_n_deadlock_free 2

info: Standard input is not a terminal, disabling listeners.
ingesting configs/topologies/vn_maps_ndbt/ns_s_scop_nndbt_none_2vns.vn
cpus(40)=[<m5.objects.GarnetSyntheticTraffic.GarnetSyntheticTraffic object at 0x7f7f365fa080>, <m5.objects.GarnetSyntheticTraffic.GarnetSyntheticTraffic object at 0x7f7f365fae48>, <m5.objects.GarnetSyntheticTraffic.GarnetSyntheticTraffic object at 0x7f7f36176160>, <m5.objects.GarnetSyntheticTraffic.GarnetSyntheticTraffic object at 0x7f7f36176438>, <m5.objects.GarnetSyntheticTraffic.GarnetSyntheticTraffic object at 0x7f7f36176710>, <m5.objects.GarnetSyntheticTraffic.GarnetSyntheticTraffic object at 0x7f7f361769e8>, <m5.objects.GarnetSyntheticTraffic.GarnetSyntheticTraffic object at 0x7f7f36176cc0>, <m5.objects.GarnetSyntheticTraffic.GarnetSyntheticTraffic object at 0x7f7f36176f98>, <m5.objects.GarnetSyntheticTraffic.GarnetSyntheticTraffic object at 0x7f7f3617f2b0>, <m5.objects.GarnetSyntheticTraffic.GarnetSyntheticTraffic object at 0x7f7f3617f588>, <m5.objects.GarnetSyntheticTraffic.GarnetSyntheticTraffic object at 0x7f7f3617f860>, <m5.objects.GarnetSyntheticTraffic.GarnetSyntheticTraffic object at 0x7f7f3617fb38>, <m5.objects.GarnetSyntheticTraffic.GarnetSyntheticTraffic object at 0x7f7f365fa898>, <m5.objects.GarnetSyntheticTraffic.GarnetSyntheticTraffic object at 0x7f7f365e9eb8>, <m5.objects.GarnetSyntheticTraffic.GarnetSyntheticTraffic object at 0x7f7f365f3710>, <m5.objects.GarnetSyntheticTraffic.GarnetSyntheticTraffic object at 0x7f7f365f3d68>, <m5.objects.GarnetSyntheticTraffic.GarnetSyntheticTraffic object at 0x7f7f3617fda0>, <m5.objects.GarnetSyntheticTraffic.GarnetSyntheticTraffic object at 0x7f7f3618b0b8>, <m5.objects.GarnetSyntheticTraffic.GarnetSyntheticTraffic object at 0x7f7f3618b390>, <m5.objects.GarnetSyntheticTraffic.GarnetSyntheticTraffic object at 0x7f7f3618b668>, <m5.objects.GarnetSyntheticTraffic.GarnetSyntheticTraffic object at 0x7f7f3618b940>, <m5.objects.GarnetSyntheticTraffic.GarnetSyntheticTraffic object at 0x7f7f3618bc18>, <m5.objects.GarnetSyntheticTraffic.GarnetSyntheticTraffic object at 0x7f7f3618bef0>, <m5.objects.GarnetSyntheticTraffic.GarnetSyntheticTraffic object at 0x7f7f36192208>, <m5.objects.GarnetSyntheticTraffic.GarnetSyntheticTraffic object at 0x7f7f361924e0>, <m5.objects.GarnetSyntheticTraffic.GarnetSyntheticTraffic object at 0x7f7f361927b8>, <m5.objects.GarnetSyntheticTraffic.GarnetSyntheticTraffic object at 0x7f7f36192a90>, <m5.objects.GarnetSyntheticTraffic.GarnetSyntheticTraffic object at 0x7f7f36192d68>, <m5.objects.GarnetSyntheticTraffic.GarnetSyntheticTraffic object at 0x7f7f3619a080>, <m5.objects.GarnetSyntheticTraffic.GarnetSyntheticTraffic object at 0x7f7f3619a358>, <m5.objects.GarnetSyntheticTraffic.GarnetSyntheticTraffic object at 0x7f7f3619a630>, <m5.objects.GarnetSyntheticTraffic.GarnetSyntheticTraffic object at 0x7f7f3619a908>, <m5.objects.GarnetSyntheticTraffic.GarnetSyntheticTraffic object at 0x7f7f3619abe0>, <m5.objects.GarnetSyntheticTraffic.GarnetSyntheticTraffic object at 0x7f7f3619aeb8>, <m5.objects.GarnetSyntheticTraffic.GarnetSyntheticTraffic object at 0x7f7f361a31d0>, <m5.objects.GarnetSyntheticTraffic.GarnetSyntheticTraffic object at 0x7f7f361a34a8>, <m5.objects.GarnetSyntheticTraffic.GarnetSyntheticTraffic object at 0x7f7f361a3780>, <m5.objects.GarnetSyntheticTraffic.GarnetSyntheticTraffic object at 0x7f7f361a3a58>, <m5.objects.GarnetSyntheticTraffic.GarnetSyntheticTraffic object at 0x7f7f361a3d30>, <m5.objects.GarnetSyntheticTraffic.GarnetSyntheticTraffic object at 0x7f7f361aa048>])
ingesting configs/topologies/nr_list_ndbt/ns_s_scop_nndbt.nrl
ingesting configs/topologies/vn_maps_ndbt/ns_s_scop_nndbt_none_2vns.vn
ext_cdc_required = True
