gem5 Simulator System.  https://www.gem5.org
gem5 is copyrighted software; use the --copyright option for details.

gem5 version 22.0.0.2
gem5 compiled Jun 17 2023 14:31:12
gem5 started Nov 18 2023 15:50:47
gem5 executing on mnemosyne24.ecn.purdue.edu, pid 14994
command line: ./build/Garnet_standalone/gem5.fast -d ./synth_outputs/simple/2b/mixed/nndbt_none_2_6_40cpus_4xdirs_4.0GHz/mem/ns_l_latop/0_15/ configs/auto_top/auto_top_synth.py --topology EscapeVirtualNetworks --noi_routers 20 --sim-cycles 2147483647 --injectionrate 0.15 --noc_clk 4.0GHz --sys-clock 4.0GHz --ruby-clock 4.0GHz --noi_clk 2.7GHz --router_map_file configs/topologies/paper_solutions/ns_l_latop.map --flat_vn_map_file configs/topologies/vn_maps_ndbt/ns_l_latop_nndbt_none_2vns.vn --flat_nr_map_file configs/topologies/nr_list_ndbt/ns_l_latop_nndbt.nrl --ruby --mem_or_coh mem --mem-size 320000000 --num-dirs 64 --num-cpus 40 --network garnet --mem-type SimpleMemory --routing-algorithm 2 --use_escape_vns --synth_traffic --vcs-per-vnet 6 --evn_deadlock_partition 4 --evn_n_deadlock_free 1 --evn_min_n_deadlock_free 2

info: Standard input is not a terminal, disabling listeners.
ingesting configs/topologies/vn_maps_ndbt/ns_l_latop_nndbt_none_2vns.vn
cpus(40)=[<m5.objects.GarnetSyntheticTraffic.GarnetSyntheticTraffic object at 0x7f0229360048>, <m5.objects.GarnetSyntheticTraffic.GarnetSyntheticTraffic object at 0x7f0229360e10>, <m5.objects.GarnetSyntheticTraffic.GarnetSyntheticTraffic object at 0x7f0228ede128>, <m5.objects.GarnetSyntheticTraffic.GarnetSyntheticTraffic object at 0x7f0228ede400>, <m5.objects.GarnetSyntheticTraffic.GarnetSyntheticTraffic object at 0x7f0228ede6d8>, <m5.objects.GarnetSyntheticTraffic.GarnetSyntheticTraffic object at 0x7f0228ede9b0>, <m5.objects.GarnetSyntheticTraffic.GarnetSyntheticTraffic object at 0x7f0228edec88>, <m5.objects.GarnetSyntheticTraffic.GarnetSyntheticTraffic object at 0x7f0228edef60>, <m5.objects.GarnetSyntheticTraffic.GarnetSyntheticTraffic object at 0x7f0228ee7278>, <m5.objects.GarnetSyntheticTraffic.GarnetSyntheticTraffic object at 0x7f0228ee7550>, <m5.objects.GarnetSyntheticTraffic.GarnetSyntheticTraffic object at 0x7f0228ee7828>, <m5.objects.GarnetSyntheticTraffic.GarnetSyntheticTraffic object at 0x7f0228ee7b00>, <m5.objects.GarnetSyntheticTraffic.GarnetSyntheticTraffic object at 0x7f0229360860>, <m5.objects.GarnetSyntheticTraffic.GarnetSyntheticTraffic object at 0x7f0229351dd8>, <m5.objects.GarnetSyntheticTraffic.GarnetSyntheticTraffic object at 0x7f022935b6d8>, <m5.objects.GarnetSyntheticTraffic.GarnetSyntheticTraffic object at 0x7f022935bd30>, <m5.objects.GarnetSyntheticTraffic.GarnetSyntheticTraffic object at 0x7f0228ee7d68>, <m5.objects.GarnetSyntheticTraffic.GarnetSyntheticTraffic object at 0x7f0228ef3080>, <m5.objects.GarnetSyntheticTraffic.GarnetSyntheticTraffic object at 0x7f0228ef3358>, <m5.objects.GarnetSyntheticTraffic.GarnetSyntheticTraffic object at 0x7f0228ef3630>, <m5.objects.GarnetSyntheticTraffic.GarnetSyntheticTraffic object at 0x7f0228ef3908>, <m5.objects.GarnetSyntheticTraffic.GarnetSyntheticTraffic object at 0x7f0228ef3be0>, <m5.objects.GarnetSyntheticTraffic.GarnetSyntheticTraffic object at 0x7f0228ef3eb8>, <m5.objects.GarnetSyntheticTraffic.GarnetSyntheticTraffic object at 0x7f0228efa1d0>, <m5.objects.GarnetSyntheticTraffic.GarnetSyntheticTraffic object at 0x7f0228efa4a8>, <m5.objects.GarnetSyntheticTraffic.GarnetSyntheticTraffic object at 0x7f0228efa780>, <m5.objects.GarnetSyntheticTraffic.GarnetSyntheticTraffic object at 0x7f0228efaa58>, <m5.objects.GarnetSyntheticTraffic.GarnetSyntheticTraffic object at 0x7f0228efad30>, <m5.objects.GarnetSyntheticTraffic.GarnetSyntheticTraffic object at 0x7f0228f02048>, <m5.objects.GarnetSyntheticTraffic.GarnetSyntheticTraffic object at 0x7f0228f02320>, <m5.objects.GarnetSyntheticTraffic.GarnetSyntheticTraffic object at 0x7f0228f025f8>, <m5.objects.GarnetSyntheticTraffic.GarnetSyntheticTraffic object at 0x7f0228f028d0>, <m5.objects.GarnetSyntheticTraffic.GarnetSyntheticTraffic object at 0x7f0228f02ba8>, <m5.objects.GarnetSyntheticTraffic.GarnetSyntheticTraffic object at 0x7f0228f02e80>, <m5.objects.GarnetSyntheticTraffic.GarnetSyntheticTraffic object at 0x7f0228f0b198>, <m5.objects.GarnetSyntheticTraffic.GarnetSyntheticTraffic object at 0x7f0228f0b470>, <m5.objects.GarnetSyntheticTraffic.GarnetSyntheticTraffic object at 0x7f0228f0b748>, <m5.objects.GarnetSyntheticTraffic.GarnetSyntheticTraffic object at 0x7f0228f0ba20>, <m5.objects.GarnetSyntheticTraffic.GarnetSyntheticTraffic object at 0x7f0228f0bcf8>, <m5.objects.GarnetSyntheticTraffic.GarnetSyntheticTraffic object at 0x7f0228f0bfd0>])
ingesting configs/topologies/nr_list_ndbt/ns_l_latop_nndbt.nrl
ingesting configs/topologies/vn_maps_ndbt/ns_l_latop_nndbt_none_2vns.vn
ext_cdc_required = True
