
---------- Begin Simulation Statistics ----------
simSeconds                                   0.002147                       # Number of seconds simulated (Second)
simTicks                                   2147483750                       # Number of ticks simulated (Tick)
finalTick                                  2147483750                       # Number of ticks from beginning of simulation (restored from checkpoints and never reset) (Tick)
simFreq                                  1000000000000                       # The number of ticks per simulated second ((Tick/Second))
hostSeconds                                  11155.73                       # Real time elapsed on the host (Second)
hostTickRate                                   192500                       # The number of ticks simulated per host second (ticks/s) ((Tick/Second))
hostMemory                                    8505912                       # Number of bytes of host memory used (Byte)
system.clk_domain.clock                           250                       # Clock period in ticks (Tick)
system.cpu0.power_state.pwrStateResidencyTicks::UNDEFINED   2147483750                       # Cumulative time (in ticks) in various power states (Tick)
system.cpu1.power_state.pwrStateResidencyTicks::UNDEFINED   2147483750                       # Cumulative time (in ticks) in various power states (Tick)
system.cpu10.power_state.pwrStateResidencyTicks::UNDEFINED   2147483750                       # Cumulative time (in ticks) in various power states (Tick)
system.cpu11.power_state.pwrStateResidencyTicks::UNDEFINED   2147483750                       # Cumulative time (in ticks) in various power states (Tick)
system.cpu12.power_state.pwrStateResidencyTicks::UNDEFINED   2147483750                       # Cumulative time (in ticks) in various power states (Tick)
system.cpu13.power_state.pwrStateResidencyTicks::UNDEFINED   2147483750                       # Cumulative time (in ticks) in various power states (Tick)
system.cpu14.power_state.pwrStateResidencyTicks::UNDEFINED   2147483750                       # Cumulative time (in ticks) in various power states (Tick)
system.cpu15.power_state.pwrStateResidencyTicks::UNDEFINED   2147483750                       # Cumulative time (in ticks) in various power states (Tick)
system.cpu16.power_state.pwrStateResidencyTicks::UNDEFINED   2147483750                       # Cumulative time (in ticks) in various power states (Tick)
system.cpu17.power_state.pwrStateResidencyTicks::UNDEFINED   2147483750                       # Cumulative time (in ticks) in various power states (Tick)
system.cpu18.power_state.pwrStateResidencyTicks::UNDEFINED   2147483750                       # Cumulative time (in ticks) in various power states (Tick)
system.cpu19.power_state.pwrStateResidencyTicks::UNDEFINED   2147483750                       # Cumulative time (in ticks) in various power states (Tick)
system.cpu2.power_state.pwrStateResidencyTicks::UNDEFINED   2147483750                       # Cumulative time (in ticks) in various power states (Tick)
system.cpu20.power_state.pwrStateResidencyTicks::UNDEFINED   2147483750                       # Cumulative time (in ticks) in various power states (Tick)
system.cpu21.power_state.pwrStateResidencyTicks::UNDEFINED   2147483750                       # Cumulative time (in ticks) in various power states (Tick)
system.cpu22.power_state.pwrStateResidencyTicks::UNDEFINED   2147483750                       # Cumulative time (in ticks) in various power states (Tick)
system.cpu23.power_state.pwrStateResidencyTicks::UNDEFINED   2147483750                       # Cumulative time (in ticks) in various power states (Tick)
system.cpu24.power_state.pwrStateResidencyTicks::UNDEFINED   2147483750                       # Cumulative time (in ticks) in various power states (Tick)
system.cpu25.power_state.pwrStateResidencyTicks::UNDEFINED   2147483750                       # Cumulative time (in ticks) in various power states (Tick)
system.cpu26.power_state.pwrStateResidencyTicks::UNDEFINED   2147483750                       # Cumulative time (in ticks) in various power states (Tick)
system.cpu27.power_state.pwrStateResidencyTicks::UNDEFINED   2147483750                       # Cumulative time (in ticks) in various power states (Tick)
system.cpu28.power_state.pwrStateResidencyTicks::UNDEFINED   2147483750                       # Cumulative time (in ticks) in various power states (Tick)
system.cpu29.power_state.pwrStateResidencyTicks::UNDEFINED   2147483750                       # Cumulative time (in ticks) in various power states (Tick)
system.cpu3.power_state.pwrStateResidencyTicks::UNDEFINED   2147483750                       # Cumulative time (in ticks) in various power states (Tick)
system.cpu30.power_state.pwrStateResidencyTicks::UNDEFINED   2147483750                       # Cumulative time (in ticks) in various power states (Tick)
system.cpu31.power_state.pwrStateResidencyTicks::UNDEFINED   2147483750                       # Cumulative time (in ticks) in various power states (Tick)
system.cpu32.power_state.pwrStateResidencyTicks::UNDEFINED   2147483750                       # Cumulative time (in ticks) in various power states (Tick)
system.cpu33.power_state.pwrStateResidencyTicks::UNDEFINED   2147483750                       # Cumulative time (in ticks) in various power states (Tick)
system.cpu34.power_state.pwrStateResidencyTicks::UNDEFINED   2147483750                       # Cumulative time (in ticks) in various power states (Tick)
system.cpu35.power_state.pwrStateResidencyTicks::UNDEFINED   2147483750                       # Cumulative time (in ticks) in various power states (Tick)
system.cpu36.power_state.pwrStateResidencyTicks::UNDEFINED   2147483750                       # Cumulative time (in ticks) in various power states (Tick)
system.cpu37.power_state.pwrStateResidencyTicks::UNDEFINED   2147483750                       # Cumulative time (in ticks) in various power states (Tick)
system.cpu38.power_state.pwrStateResidencyTicks::UNDEFINED   2147483750                       # Cumulative time (in ticks) in various power states (Tick)
system.cpu39.power_state.pwrStateResidencyTicks::UNDEFINED   2147483750                       # Cumulative time (in ticks) in various power states (Tick)
system.cpu4.power_state.pwrStateResidencyTicks::UNDEFINED   2147483750                       # Cumulative time (in ticks) in various power states (Tick)
system.cpu40.power_state.pwrStateResidencyTicks::UNDEFINED   2147483750                       # Cumulative time (in ticks) in various power states (Tick)
system.cpu41.power_state.pwrStateResidencyTicks::UNDEFINED   2147483750                       # Cumulative time (in ticks) in various power states (Tick)
system.cpu42.power_state.pwrStateResidencyTicks::UNDEFINED   2147483750                       # Cumulative time (in ticks) in various power states (Tick)
system.cpu43.power_state.pwrStateResidencyTicks::UNDEFINED   2147483750                       # Cumulative time (in ticks) in various power states (Tick)
system.cpu44.power_state.pwrStateResidencyTicks::UNDEFINED   2147483750                       # Cumulative time (in ticks) in various power states (Tick)
system.cpu45.power_state.pwrStateResidencyTicks::UNDEFINED   2147483750                       # Cumulative time (in ticks) in various power states (Tick)
system.cpu46.power_state.pwrStateResidencyTicks::UNDEFINED   2147483750                       # Cumulative time (in ticks) in various power states (Tick)
system.cpu47.power_state.pwrStateResidencyTicks::UNDEFINED   2147483750                       # Cumulative time (in ticks) in various power states (Tick)
system.cpu48.power_state.pwrStateResidencyTicks::UNDEFINED   2147483750                       # Cumulative time (in ticks) in various power states (Tick)
system.cpu49.power_state.pwrStateResidencyTicks::UNDEFINED   2147483750                       # Cumulative time (in ticks) in various power states (Tick)
system.cpu5.power_state.pwrStateResidencyTicks::UNDEFINED   2147483750                       # Cumulative time (in ticks) in various power states (Tick)
system.cpu50.power_state.pwrStateResidencyTicks::UNDEFINED   2147483750                       # Cumulative time (in ticks) in various power states (Tick)
system.cpu51.power_state.pwrStateResidencyTicks::UNDEFINED   2147483750                       # Cumulative time (in ticks) in various power states (Tick)
system.cpu52.power_state.pwrStateResidencyTicks::UNDEFINED   2147483750                       # Cumulative time (in ticks) in various power states (Tick)
system.cpu53.power_state.pwrStateResidencyTicks::UNDEFINED   2147483750                       # Cumulative time (in ticks) in various power states (Tick)
system.cpu54.power_state.pwrStateResidencyTicks::UNDEFINED   2147483750                       # Cumulative time (in ticks) in various power states (Tick)
system.cpu55.power_state.pwrStateResidencyTicks::UNDEFINED   2147483750                       # Cumulative time (in ticks) in various power states (Tick)
system.cpu56.power_state.pwrStateResidencyTicks::UNDEFINED   2147483750                       # Cumulative time (in ticks) in various power states (Tick)
system.cpu57.power_state.pwrStateResidencyTicks::UNDEFINED   2147483750                       # Cumulative time (in ticks) in various power states (Tick)
system.cpu58.power_state.pwrStateResidencyTicks::UNDEFINED   2147483750                       # Cumulative time (in ticks) in various power states (Tick)
system.cpu59.power_state.pwrStateResidencyTicks::UNDEFINED   2147483750                       # Cumulative time (in ticks) in various power states (Tick)
system.cpu6.power_state.pwrStateResidencyTicks::UNDEFINED   2147483750                       # Cumulative time (in ticks) in various power states (Tick)
system.cpu60.power_state.pwrStateResidencyTicks::UNDEFINED   2147483750                       # Cumulative time (in ticks) in various power states (Tick)
system.cpu61.power_state.pwrStateResidencyTicks::UNDEFINED   2147483750                       # Cumulative time (in ticks) in various power states (Tick)
system.cpu62.power_state.pwrStateResidencyTicks::UNDEFINED   2147483750                       # Cumulative time (in ticks) in various power states (Tick)
system.cpu63.power_state.pwrStateResidencyTicks::UNDEFINED   2147483750                       # Cumulative time (in ticks) in various power states (Tick)
system.cpu7.power_state.pwrStateResidencyTicks::UNDEFINED   2147483750                       # Cumulative time (in ticks) in various power states (Tick)
system.cpu8.power_state.pwrStateResidencyTicks::UNDEFINED   2147483750                       # Cumulative time (in ticks) in various power states (Tick)
system.cpu9.power_state.pwrStateResidencyTicks::UNDEFINED   2147483750                       # Cumulative time (in ticks) in various power states (Tick)
system.mem_ctrls0.power_state.pwrStateResidencyTicks::UNDEFINED   2147483750                       # Cumulative time (in ticks) in various power states (Tick)
system.mem_ctrls1.power_state.pwrStateResidencyTicks::UNDEFINED   2147483750                       # Cumulative time (in ticks) in various power states (Tick)
system.mem_ctrls10.power_state.pwrStateResidencyTicks::UNDEFINED   2147483750                       # Cumulative time (in ticks) in various power states (Tick)
system.mem_ctrls11.power_state.pwrStateResidencyTicks::UNDEFINED   2147483750                       # Cumulative time (in ticks) in various power states (Tick)
system.mem_ctrls12.power_state.pwrStateResidencyTicks::UNDEFINED   2147483750                       # Cumulative time (in ticks) in various power states (Tick)
system.mem_ctrls13.power_state.pwrStateResidencyTicks::UNDEFINED   2147483750                       # Cumulative time (in ticks) in various power states (Tick)
system.mem_ctrls14.power_state.pwrStateResidencyTicks::UNDEFINED   2147483750                       # Cumulative time (in ticks) in various power states (Tick)
system.mem_ctrls15.power_state.pwrStateResidencyTicks::UNDEFINED   2147483750                       # Cumulative time (in ticks) in various power states (Tick)
system.mem_ctrls16.power_state.pwrStateResidencyTicks::UNDEFINED   2147483750                       # Cumulative time (in ticks) in various power states (Tick)
system.mem_ctrls17.power_state.pwrStateResidencyTicks::UNDEFINED   2147483750                       # Cumulative time (in ticks) in various power states (Tick)
system.mem_ctrls18.power_state.pwrStateResidencyTicks::UNDEFINED   2147483750                       # Cumulative time (in ticks) in various power states (Tick)
system.mem_ctrls19.power_state.pwrStateResidencyTicks::UNDEFINED   2147483750                       # Cumulative time (in ticks) in various power states (Tick)
system.mem_ctrls2.power_state.pwrStateResidencyTicks::UNDEFINED   2147483750                       # Cumulative time (in ticks) in various power states (Tick)
system.mem_ctrls20.power_state.pwrStateResidencyTicks::UNDEFINED   2147483750                       # Cumulative time (in ticks) in various power states (Tick)
system.mem_ctrls21.power_state.pwrStateResidencyTicks::UNDEFINED   2147483750                       # Cumulative time (in ticks) in various power states (Tick)
system.mem_ctrls22.power_state.pwrStateResidencyTicks::UNDEFINED   2147483750                       # Cumulative time (in ticks) in various power states (Tick)
system.mem_ctrls23.power_state.pwrStateResidencyTicks::UNDEFINED   2147483750                       # Cumulative time (in ticks) in various power states (Tick)
system.mem_ctrls24.power_state.pwrStateResidencyTicks::UNDEFINED   2147483750                       # Cumulative time (in ticks) in various power states (Tick)
system.mem_ctrls25.power_state.pwrStateResidencyTicks::UNDEFINED   2147483750                       # Cumulative time (in ticks) in various power states (Tick)
system.mem_ctrls26.power_state.pwrStateResidencyTicks::UNDEFINED   2147483750                       # Cumulative time (in ticks) in various power states (Tick)
system.mem_ctrls27.power_state.pwrStateResidencyTicks::UNDEFINED   2147483750                       # Cumulative time (in ticks) in various power states (Tick)
system.mem_ctrls28.power_state.pwrStateResidencyTicks::UNDEFINED   2147483750                       # Cumulative time (in ticks) in various power states (Tick)
system.mem_ctrls29.power_state.pwrStateResidencyTicks::UNDEFINED   2147483750                       # Cumulative time (in ticks) in various power states (Tick)
system.mem_ctrls3.power_state.pwrStateResidencyTicks::UNDEFINED   2147483750                       # Cumulative time (in ticks) in various power states (Tick)
system.mem_ctrls30.power_state.pwrStateResidencyTicks::UNDEFINED   2147483750                       # Cumulative time (in ticks) in various power states (Tick)
system.mem_ctrls31.power_state.pwrStateResidencyTicks::UNDEFINED   2147483750                       # Cumulative time (in ticks) in various power states (Tick)
system.mem_ctrls32.power_state.pwrStateResidencyTicks::UNDEFINED   2147483750                       # Cumulative time (in ticks) in various power states (Tick)
system.mem_ctrls33.power_state.pwrStateResidencyTicks::UNDEFINED   2147483750                       # Cumulative time (in ticks) in various power states (Tick)
system.mem_ctrls34.power_state.pwrStateResidencyTicks::UNDEFINED   2147483750                       # Cumulative time (in ticks) in various power states (Tick)
system.mem_ctrls35.power_state.pwrStateResidencyTicks::UNDEFINED   2147483750                       # Cumulative time (in ticks) in various power states (Tick)
system.mem_ctrls36.power_state.pwrStateResidencyTicks::UNDEFINED   2147483750                       # Cumulative time (in ticks) in various power states (Tick)
system.mem_ctrls37.power_state.pwrStateResidencyTicks::UNDEFINED   2147483750                       # Cumulative time (in ticks) in various power states (Tick)
system.mem_ctrls38.power_state.pwrStateResidencyTicks::UNDEFINED   2147483750                       # Cumulative time (in ticks) in various power states (Tick)
system.mem_ctrls39.power_state.pwrStateResidencyTicks::UNDEFINED   2147483750                       # Cumulative time (in ticks) in various power states (Tick)
system.mem_ctrls4.power_state.pwrStateResidencyTicks::UNDEFINED   2147483750                       # Cumulative time (in ticks) in various power states (Tick)
system.mem_ctrls40.power_state.pwrStateResidencyTicks::UNDEFINED   2147483750                       # Cumulative time (in ticks) in various power states (Tick)
system.mem_ctrls41.power_state.pwrStateResidencyTicks::UNDEFINED   2147483750                       # Cumulative time (in ticks) in various power states (Tick)
system.mem_ctrls42.power_state.pwrStateResidencyTicks::UNDEFINED   2147483750                       # Cumulative time (in ticks) in various power states (Tick)
system.mem_ctrls43.power_state.pwrStateResidencyTicks::UNDEFINED   2147483750                       # Cumulative time (in ticks) in various power states (Tick)
system.mem_ctrls44.power_state.pwrStateResidencyTicks::UNDEFINED   2147483750                       # Cumulative time (in ticks) in various power states (Tick)
system.mem_ctrls45.power_state.pwrStateResidencyTicks::UNDEFINED   2147483750                       # Cumulative time (in ticks) in various power states (Tick)
system.mem_ctrls46.power_state.pwrStateResidencyTicks::UNDEFINED   2147483750                       # Cumulative time (in ticks) in various power states (Tick)
system.mem_ctrls47.power_state.pwrStateResidencyTicks::UNDEFINED   2147483750                       # Cumulative time (in ticks) in various power states (Tick)
system.mem_ctrls48.power_state.pwrStateResidencyTicks::UNDEFINED   2147483750                       # Cumulative time (in ticks) in various power states (Tick)
system.mem_ctrls49.power_state.pwrStateResidencyTicks::UNDEFINED   2147483750                       # Cumulative time (in ticks) in various power states (Tick)
system.mem_ctrls5.power_state.pwrStateResidencyTicks::UNDEFINED   2147483750                       # Cumulative time (in ticks) in various power states (Tick)
system.mem_ctrls50.power_state.pwrStateResidencyTicks::UNDEFINED   2147483750                       # Cumulative time (in ticks) in various power states (Tick)
system.mem_ctrls51.power_state.pwrStateResidencyTicks::UNDEFINED   2147483750                       # Cumulative time (in ticks) in various power states (Tick)
system.mem_ctrls52.power_state.pwrStateResidencyTicks::UNDEFINED   2147483750                       # Cumulative time (in ticks) in various power states (Tick)
system.mem_ctrls53.power_state.pwrStateResidencyTicks::UNDEFINED   2147483750                       # Cumulative time (in ticks) in various power states (Tick)
system.mem_ctrls54.power_state.pwrStateResidencyTicks::UNDEFINED   2147483750                       # Cumulative time (in ticks) in various power states (Tick)
system.mem_ctrls55.power_state.pwrStateResidencyTicks::UNDEFINED   2147483750                       # Cumulative time (in ticks) in various power states (Tick)
system.mem_ctrls56.power_state.pwrStateResidencyTicks::UNDEFINED   2147483750                       # Cumulative time (in ticks) in various power states (Tick)
system.mem_ctrls57.power_state.pwrStateResidencyTicks::UNDEFINED   2147483750                       # Cumulative time (in ticks) in various power states (Tick)
system.mem_ctrls58.power_state.pwrStateResidencyTicks::UNDEFINED   2147483750                       # Cumulative time (in ticks) in various power states (Tick)
system.mem_ctrls59.power_state.pwrStateResidencyTicks::UNDEFINED   2147483750                       # Cumulative time (in ticks) in various power states (Tick)
system.mem_ctrls6.power_state.pwrStateResidencyTicks::UNDEFINED   2147483750                       # Cumulative time (in ticks) in various power states (Tick)
system.mem_ctrls60.power_state.pwrStateResidencyTicks::UNDEFINED   2147483750                       # Cumulative time (in ticks) in various power states (Tick)
system.mem_ctrls61.power_state.pwrStateResidencyTicks::UNDEFINED   2147483750                       # Cumulative time (in ticks) in various power states (Tick)
system.mem_ctrls62.power_state.pwrStateResidencyTicks::UNDEFINED   2147483750                       # Cumulative time (in ticks) in various power states (Tick)
system.mem_ctrls63.power_state.pwrStateResidencyTicks::UNDEFINED   2147483750                       # Cumulative time (in ticks) in various power states (Tick)
system.mem_ctrls7.power_state.pwrStateResidencyTicks::UNDEFINED   2147483750                       # Cumulative time (in ticks) in various power states (Tick)
system.mem_ctrls8.power_state.pwrStateResidencyTicks::UNDEFINED   2147483750                       # Cumulative time (in ticks) in various power states (Tick)
system.mem_ctrls9.power_state.pwrStateResidencyTicks::UNDEFINED   2147483750                       # Cumulative time (in ticks) in various power states (Tick)
system.ruby.m_outstandReqHistSeqr::bucket_size            1                       (Unspecified)
system.ruby.m_outstandReqHistSeqr::max_bucket            9                       (Unspecified)
system.ruby.m_outstandReqHistSeqr::samples     60397616                       (Unspecified)
system.ruby.m_outstandReqHistSeqr::mean             1                       (Unspecified)
system.ruby.m_outstandReqHistSeqr::gmean            1                       (Unspecified)
system.ruby.m_outstandReqHistSeqr        |           0      0.00%      0.00% |    60397616    100.00%    100.00% |           0      0.00%    100.00% |           0      0.00%    100.00% |           0      0.00%    100.00% |           0      0.00%    100.00% |           0      0.00%    100.00% |           0      0.00%    100.00% |           0      0.00%    100.00% |           0      0.00%    100.00% (Unspecified)
system.ruby.m_outstandReqHistSeqr::total     60397616                       (Unspecified)
system.ruby.m_latencyHistSeqr::bucket_size            1                       (Unspecified)
system.ruby.m_latencyHistSeqr::max_bucket            9                       (Unspecified)
system.ruby.m_latencyHistSeqr::samples       60397614                       (Unspecified)
system.ruby.m_latencyHistSeqr::mean                 1                       (Unspecified)
system.ruby.m_latencyHistSeqr::gmean                1                       (Unspecified)
system.ruby.m_latencyHistSeqr            |           0      0.00%      0.00% |    60397614    100.00%    100.00% |           0      0.00%    100.00% |           0      0.00%    100.00% |           0      0.00%    100.00% |           0      0.00%    100.00% |           0      0.00%    100.00% |           0      0.00%    100.00% |           0      0.00%    100.00% |           0      0.00%    100.00% (Unspecified)
system.ruby.m_latencyHistSeqr::total         60397614                       (Unspecified)
system.ruby.m_hitLatencyHistSeqr::bucket_size            1                       (Unspecified)
system.ruby.m_hitLatencyHistSeqr::max_bucket            9                       (Unspecified)
system.ruby.m_hitLatencyHistSeqr::samples     60397614                       (Unspecified)
system.ruby.m_hitLatencyHistSeqr::mean              1                       (Unspecified)
system.ruby.m_hitLatencyHistSeqr::gmean             1                       (Unspecified)
system.ruby.m_hitLatencyHistSeqr         |           0      0.00%      0.00% |    60397614    100.00%    100.00% |           0      0.00%    100.00% |           0      0.00%    100.00% |           0      0.00%    100.00% |           0      0.00%    100.00% |           0      0.00%    100.00% |           0      0.00%    100.00% |           0      0.00%    100.00% |           0      0.00%    100.00% (Unspecified)
system.ruby.m_hitLatencyHistSeqr::total      60397614                       (Unspecified)
system.ruby.Directory_Controller.Receive_Request |      313659      1.56%      1.56% |      314694      1.56%      3.12% |      314666      1.56%      4.68% |      315089      1.57%      6.25% |      314542      1.56%      7.81% |      314030      1.56%      9.37% |      313398      1.56%     10.93% |      314622      1.56%     12.49% |      315090      1.57%     14.06% |      314878      1.56%     15.62% |      314904      1.56%     17.18% |      315740      1.57%     18.75% |      315007      1.56%     20.32% |      313753      1.56%     21.88% |      313751      1.56%     23.43% |      314870      1.56%     25.00% |      314009      1.56%     26.56% |      315133      1.57%     28.12% |      314707      1.56%     29.69% |      314599      1.56%     31.25% |      315400      1.57%     32.82% |      314281      1.56%     34.38% |      314207      1.56%     35.94% |      314230      1.56%     37.50% |      314375      1.56%     39.06% |      313688      1.56%     40.62% |      315271      1.57%     42.18% |      313849      1.56%     43.74% |      314969      1.56%     45.31% |      313344      1.56%     46.86% |      315668      1.57%     48.43% |      314488      1.56%     49.99% |      314545      1.56%     51.56% |      314921      1.56%     53.12% |      314675      1.56%     54.68% |      314746      1.56%     56.25% |      315327      1.57%     57.81% |      314788      1.56%     59.38% |      314310      1.56%     60.94% |      314761      1.56%     62.50% |      314418      1.56%     64.06% |      314068      1.56%     65.62% |      315160      1.57%     67.19% |      314233      1.56%     68.75% |      315165      1.57%     70.31% |      315032      1.56%     71.88% |      314007      1.56%     73.44% |      314750      1.56%     75.00% |      313472      1.56%     76.56% |      315406      1.57%     78.13% |      314989      1.56%     79.69% |      314865      1.56%     81.25% |      314500      1.56%     82.82% |      314601      1.56%     84.38% |      313905      1.56%     85.94% |      314073      1.56%     87.50% |      314481      1.56%     89.06% |      313374      1.56%     90.62% |      314575      1.56%     92.18% |      314778      1.56%     93.74% |      315038      1.56%     95.31% |      315314      1.57%     96.87% |      314678      1.56%     98.44% |      314806      1.56%    100.00% (Unspecified)
system.ruby.Directory_Controller.Receive_Request::total     20132672                       (Unspecified)
system.ruby.Directory_Controller.Receive_Forward |      314814      1.56%      1.56% |      314065      1.56%      3.12% |      314424      1.56%      4.69% |      315093      1.57%      6.25% |      315304      1.57%      7.82% |      313485      1.56%      9.38% |      315143      1.57%     10.94% |      313284      1.56%     12.50% |      315617      1.57%     14.06% |      314343      1.56%     15.63% |      315705      1.57%     17.19% |      314165      1.56%     18.76% |      313203      1.56%     20.31% |      315218      1.57%     21.88% |      314556      1.56%     23.44% |      314820      1.56%     25.00% |      315451      1.57%     26.57% |      315034      1.57%     28.14% |      314255      1.56%     29.70% |      314748      1.56%     31.26% |      314731      1.56%     32.82% |      314888      1.56%     34.39% |      313607      1.56%     35.95% |      314794      1.56%     37.51% |      314824      1.56%     39.07% |      314251      1.56%     40.64% |      314752      1.56%     42.20% |      313637      1.56%     43.76% |      313465      1.56%     45.31% |      314402      1.56%     46.88% |      314768      1.56%     48.44% |      314263      1.56%     50.00% |      314095      1.56%     51.56% |      314115      1.56%     53.12% |      314785      1.56%     54.69% |      314241      1.56%     56.25% |      314323      1.56%     57.81% |      315938      1.57%     59.38% |      315503      1.57%     60.95% |      314769      1.56%     62.51% |      314785      1.56%     64.07% |      313915      1.56%     65.63% |      315006      1.56%     67.20% |      313915      1.56%     68.76% |      314170      1.56%     70.32% |      315624      1.57%     71.89% |      314565      1.56%     73.45% |      314286      1.56%     75.01% |      314148      1.56%     76.57% |      314431      1.56%     78.13% |      313471      1.56%     79.69% |      315061      1.57%     81.25% |      313934      1.56%     82.81% |      314829      1.56%     84.38% |      314284      1.56%     85.94% |      314184      1.56%     87.50% |      314295      1.56%     89.06% |      313396      1.56%     90.62% |      315245      1.57%     92.18% |      313809      1.56%     93.74% |      314997      1.56%     95.31% |      315428      1.57%     96.88% |      314683      1.56%     98.44% |      314355      1.56%    100.00% (Unspecified)
system.ruby.Directory_Controller.Receive_Forward::total     20129694                       (Unspecified)
system.ruby.Directory_Controller.Receive_Response |      246522      1.56%      1.56% |      247288      1.57%      3.13% |      246587      1.56%      4.69% |      246894      1.56%      6.25% |      246675      1.56%      7.81% |      247060      1.56%      9.37% |      246209      1.56%     10.93% |      246507      1.56%     12.49% |      246444      1.56%     14.05% |      246859      1.56%     15.62% |      246775      1.56%     17.18% |      246615      1.56%     18.74% |      246938      1.56%     20.30% |      247545      1.57%     21.87% |      246567      1.56%     23.43% |      247307      1.57%     25.00% |      246736      1.56%     26.56% |      246734      1.56%     28.12% |      248012      1.57%     29.69% |      245495      1.55%     31.24% |      247397      1.57%     32.81% |      246735      1.56%     34.37% |      246761      1.56%     35.93% |      247113      1.56%     37.50% |      247279      1.57%     39.06% |      247240      1.57%     40.63% |      246805      1.56%     42.19% |      246585      1.56%     43.75% |      246064      1.56%     45.31% |      246616      1.56%     46.87% |      245924      1.56%     48.43% |      246353      1.56%     49.99% |      246963      1.56%     51.55% |      246185      1.56%     53.11% |      247063      1.56%     54.67% |      247135      1.56%     56.23% |      246182      1.56%     57.79% |      247023      1.56%     59.36% |      247351      1.57%     60.92% |      247050      1.56%     62.49% |      247697      1.57%     64.05% |      246944      1.56%     65.62% |      247531      1.57%     67.18% |      247164      1.56%     68.75% |      247166      1.56%     70.31% |      247300      1.57%     71.88% |      246977      1.56%     73.44% |      246186      1.56%     75.00% |      246177      1.56%     76.56% |      246540      1.56%     78.12% |      246643      1.56%     79.68% |      247515      1.57%     81.25% |      246834      1.56%     82.81% |      246420      1.56%     84.37% |      247062      1.56%     85.93% |      247842      1.57%     87.50% |      246056      1.56%     89.06% |      247819      1.57%     90.63% |      246814      1.56%     92.19% |      246654      1.56%     93.75% |      247041      1.56%     95.32% |      246082      1.56%     96.87% |      246499      1.56%     98.43% |      247430      1.57%    100.00% (Unspecified)
system.ruby.Directory_Controller.Receive_Response::total     15797986                       (Unspecified)
system.ruby.Directory_Controller.I.Receive_Request |      313659      1.56%      1.56% |      314694      1.56%      3.12% |      314666      1.56%      4.68% |      315089      1.57%      6.25% |      314542      1.56%      7.81% |      314030      1.56%      9.37% |      313398      1.56%     10.93% |      314622      1.56%     12.49% |      315090      1.57%     14.06% |      314878      1.56%     15.62% |      314904      1.56%     17.18% |      315740      1.57%     18.75% |      315007      1.56%     20.32% |      313753      1.56%     21.88% |      313751      1.56%     23.43% |      314870      1.56%     25.00% |      314009      1.56%     26.56% |      315133      1.57%     28.12% |      314707      1.56%     29.69% |      314599      1.56%     31.25% |      315400      1.57%     32.82% |      314281      1.56%     34.38% |      314207      1.56%     35.94% |      314230      1.56%     37.50% |      314375      1.56%     39.06% |      313688      1.56%     40.62% |      315271      1.57%     42.18% |      313849      1.56%     43.74% |      314969      1.56%     45.31% |      313344      1.56%     46.86% |      315668      1.57%     48.43% |      314488      1.56%     49.99% |      314545      1.56%     51.56% |      314921      1.56%     53.12% |      314675      1.56%     54.68% |      314746      1.56%     56.25% |      315327      1.57%     57.81% |      314788      1.56%     59.38% |      314310      1.56%     60.94% |      314761      1.56%     62.50% |      314418      1.56%     64.06% |      314068      1.56%     65.62% |      315160      1.57%     67.19% |      314233      1.56%     68.75% |      315165      1.57%     70.31% |      315032      1.56%     71.88% |      314007      1.56%     73.44% |      314750      1.56%     75.00% |      313472      1.56%     76.56% |      315406      1.57%     78.13% |      314989      1.56%     79.69% |      314865      1.56%     81.25% |      314500      1.56%     82.82% |      314601      1.56%     84.38% |      313905      1.56%     85.94% |      314073      1.56%     87.50% |      314481      1.56%     89.06% |      313374      1.56%     90.62% |      314575      1.56%     92.18% |      314778      1.56%     93.74% |      315038      1.56%     95.31% |      315314      1.57%     96.87% |      314678      1.56%     98.44% |      314806      1.56%    100.00% (Unspecified)
system.ruby.Directory_Controller.I.Receive_Request::total     20132672                       (Unspecified)
system.ruby.Directory_Controller.I.Receive_Forward |      314814      1.56%      1.56% |      314065      1.56%      3.12% |      314424      1.56%      4.69% |      315093      1.57%      6.25% |      315304      1.57%      7.82% |      313485      1.56%      9.38% |      315143      1.57%     10.94% |      313284      1.56%     12.50% |      315617      1.57%     14.06% |      314343      1.56%     15.63% |      315705      1.57%     17.19% |      314165      1.56%     18.76% |      313203      1.56%     20.31% |      315218      1.57%     21.88% |      314556      1.56%     23.44% |      314820      1.56%     25.00% |      315451      1.57%     26.57% |      315034      1.57%     28.14% |      314255      1.56%     29.70% |      314748      1.56%     31.26% |      314731      1.56%     32.82% |      314888      1.56%     34.39% |      313607      1.56%     35.95% |      314794      1.56%     37.51% |      314824      1.56%     39.07% |      314251      1.56%     40.64% |      314752      1.56%     42.20% |      313637      1.56%     43.76% |      313465      1.56%     45.31% |      314402      1.56%     46.88% |      314768      1.56%     48.44% |      314263      1.56%     50.00% |      314095      1.56%     51.56% |      314115      1.56%     53.12% |      314785      1.56%     54.69% |      314241      1.56%     56.25% |      314323      1.56%     57.81% |      315938      1.57%     59.38% |      315503      1.57%     60.95% |      314769      1.56%     62.51% |      314785      1.56%     64.07% |      313915      1.56%     65.63% |      315006      1.56%     67.20% |      313915      1.56%     68.76% |      314170      1.56%     70.32% |      315624      1.57%     71.89% |      314565      1.56%     73.45% |      314286      1.56%     75.01% |      314148      1.56%     76.57% |      314431      1.56%     78.13% |      313471      1.56%     79.69% |      315061      1.57%     81.25% |      313934      1.56%     82.81% |      314829      1.56%     84.38% |      314284      1.56%     85.94% |      314184      1.56%     87.50% |      314295      1.56%     89.06% |      313396      1.56%     90.62% |      315245      1.57%     92.18% |      313809      1.56%     93.74% |      314997      1.56%     95.31% |      315428      1.57%     96.88% |      314683      1.56%     98.44% |      314355      1.56%    100.00% (Unspecified)
system.ruby.Directory_Controller.I.Receive_Forward::total     20129694                       (Unspecified)
system.ruby.Directory_Controller.I.Receive_Response |      246522      1.56%      1.56% |      247288      1.57%      3.13% |      246587      1.56%      4.69% |      246894      1.56%      6.25% |      246675      1.56%      7.81% |      247060      1.56%      9.37% |      246209      1.56%     10.93% |      246507      1.56%     12.49% |      246444      1.56%     14.05% |      246859      1.56%     15.62% |      246775      1.56%     17.18% |      246615      1.56%     18.74% |      246938      1.56%     20.30% |      247545      1.57%     21.87% |      246567      1.56%     23.43% |      247307      1.57%     25.00% |      246736      1.56%     26.56% |      246734      1.56%     28.12% |      248012      1.57%     29.69% |      245495      1.55%     31.24% |      247397      1.57%     32.81% |      246735      1.56%     34.37% |      246761      1.56%     35.93% |      247113      1.56%     37.50% |      247279      1.57%     39.06% |      247240      1.57%     40.63% |      246805      1.56%     42.19% |      246585      1.56%     43.75% |      246064      1.56%     45.31% |      246616      1.56%     46.87% |      245924      1.56%     48.43% |      246353      1.56%     49.99% |      246963      1.56%     51.55% |      246185      1.56%     53.11% |      247063      1.56%     54.67% |      247135      1.56%     56.23% |      246182      1.56%     57.79% |      247023      1.56%     59.36% |      247351      1.57%     60.92% |      247050      1.56%     62.49% |      247697      1.57%     64.05% |      246944      1.56%     65.62% |      247531      1.57%     67.18% |      247164      1.56%     68.75% |      247166      1.56%     70.31% |      247300      1.57%     71.88% |      246977      1.56%     73.44% |      246186      1.56%     75.00% |      246177      1.56%     76.56% |      246540      1.56%     78.12% |      246643      1.56%     79.68% |      247515      1.57%     81.25% |      246834      1.56%     82.81% |      246420      1.56%     84.37% |      247062      1.56%     85.93% |      247842      1.57%     87.50% |      246056      1.56%     89.06% |      247819      1.57%     90.63% |      246814      1.56%     92.19% |      246654      1.56%     93.75% |      247041      1.56%     95.32% |      246082      1.56%     96.87% |      246499      1.56%     98.43% |      247430      1.57%    100.00% (Unspecified)
system.ruby.Directory_Controller.I.Receive_Response::total     15797986                       (Unspecified)
system.ruby.L1Cache_Controller.Request   |      314383      1.56%      1.56% |      314987      1.56%      3.13% |      314649      1.56%      4.69% |      314628      1.56%      6.25% |      315170      1.57%      7.82% |      315355      1.57%      9.38% |      314757      1.56%     10.95% |      314464      1.56%     12.51% |      315270      1.57%     14.07% |      314606      1.56%     15.64% |      314767      1.56%     17.20% |      314769      1.56%     18.76% |      314914      1.56%     20.33% |      313779      1.56%     21.89% |      314915      1.56%     23.45% |      314129      1.56%     25.01% |      313784      1.56%     26.57% |      315162      1.57%     28.14% |      313187      1.56%     29.69% |      314491      1.56%     31.25% |      315172      1.57%     32.82% |      315168      1.57%     34.38% |      314115      1.56%     35.94% |      313780      1.56%     37.50% |      314828      1.56%     39.07% |      314850      1.56%     40.63% |      314208      1.56%     42.19% |      313468      1.56%     43.75% |      313717      1.56%     45.31% |      314806      1.56%     46.87% |      313791      1.56%     48.43% |      315585      1.57%     50.00% |      315056      1.56%     51.56% |      315121      1.57%     53.13% |      313730      1.56%     54.68% |      314954      1.56%     56.25% |      314428      1.56%     57.81% |      313674      1.56%     59.37% |      314859      1.56%     60.93% |      314254      1.56%     62.49% |      314036      1.56%     64.05% |      314968      1.56%     65.62% |      314115      1.56%     67.18% |      314187      1.56%     68.74% |      314783      1.56%     70.30% |      314887      1.56%     71.87% |      313865      1.56%     73.43% |      314480      1.56%     74.99% |      314171      1.56%     76.55% |      314256      1.56%     78.11% |      314634      1.56%     79.67% |      314989      1.56%     81.24% |      314682      1.56%     82.80% |      315079      1.57%     84.36% |      314769      1.56%     85.93% |      314013      1.56%     87.49% |      315409      1.57%     89.05% |      314959      1.56%     90.62% |      315360      1.57%     92.19% |      313944      1.56%     93.74% |      315043      1.56%     95.31% |      314576      1.56%     96.87% |      314526      1.56%     98.43% |      315283      1.57%    100.00% (Unspecified)
system.ruby.L1Cache_Controller.Request::total     20132744                       (Unspecified)
system.ruby.L1Cache_Controller.Forward   |      314143      1.56%      1.56% |      314735      1.56%      3.12% |      314422      1.56%      4.69% |      314354      1.56%      6.25% |      313784      1.56%      7.81% |      314265      1.56%      9.37% |      314677      1.56%     10.93% |      313754      1.56%     12.49% |      314169      1.56%     14.05% |      314900      1.56%     15.61% |      314848      1.56%     17.18% |      314220      1.56%     18.74% |      314870      1.56%     20.30% |      314628      1.56%     21.87% |      314634      1.56%     23.43% |      314500      1.56%     24.99% |      314668      1.56%     26.56% |      314948      1.56%     28.12% |      315526      1.57%     29.69% |      315020      1.56%     31.25% |      313978      1.56%     32.81% |      314290      1.56%     34.37% |      314107      1.56%     35.93% |      315448      1.57%     37.50% |      315472      1.57%     39.07% |      313693      1.56%     40.63% |      314205      1.56%     42.19% |      314924      1.56%     43.75% |      314348      1.56%     45.31% |      314687      1.56%     46.88% |      313842      1.56%     48.44% |      314205      1.56%     50.00% |      313328      1.56%     51.55% |      314558      1.56%     53.12% |      313994      1.56%     54.68% |      315126      1.57%     56.24% |      314417      1.56%     57.80% |      314529      1.56%     59.37% |      314707      1.56%     60.93% |      314544      1.56%     62.49% |      314710      1.56%     64.06% |      314616      1.56%     65.62% |      314477      1.56%     67.18% |      313972      1.56%     68.74% |      314205      1.56%     70.30% |      314377      1.56%     71.86% |      314833      1.56%     73.43% |      314545      1.56%     74.99% |      315105      1.57%     76.55% |      313977      1.56%     78.11% |      313636      1.56%     79.67% |      315169      1.57%     81.24% |      314887      1.56%     82.80% |      314593      1.56%     84.37% |      314777      1.56%     85.93% |      314958      1.56%     87.49% |      314916      1.56%     89.06% |      313974      1.56%     90.62% |      314486      1.56%     92.18% |      313943      1.56%     93.74% |      314755      1.56%     95.30% |      314692      1.56%     96.87% |      315103      1.57%     98.43% |      315576      1.57%    100.00% (Unspecified)
system.ruby.L1Cache_Controller.Forward::total     20129749                       (Unspecified)
system.ruby.L1Cache_Controller.Response  |      314123      1.56%      1.56% |      314810      1.56%      3.12% |      315205      1.57%      4.69% |      314389      1.56%      6.25% |      315033      1.56%      7.82% |      314301      1.56%      9.38% |      313979      1.56%     10.94% |      315342      1.57%     12.50% |      314286      1.56%     14.06% |      313904      1.56%     15.62% |      314162      1.56%     17.18% |      315329      1.57%     18.75% |      315547      1.57%     20.31% |      314442      1.56%     21.88% |      313620      1.56%     23.43% |      313942      1.56%     24.99% |      314553      1.56%     26.56% |      315372      1.57%     28.12% |      315111      1.56%     29.69% |      314629      1.56%     31.25% |      314082      1.56%     32.81% |      313920      1.56%     34.37% |      314734      1.56%     35.93% |      315126      1.57%     37.50% |      314936      1.56%     39.06% |      314031      1.56%     40.62% |      314423      1.56%     42.18% |      314486      1.56%     43.74% |      314732      1.56%     45.31% |      313704      1.56%     46.86% |      314244      1.56%     48.43% |      315072      1.56%     49.99% |      315441      1.57%     51.56% |      314592      1.56%     53.12% |      315631      1.57%     54.69% |      313473      1.56%     56.24% |      314708      1.56%     57.81% |      314421      1.56%     59.37% |      314589      1.56%     60.93% |      314275      1.56%     62.49% |      314933      1.56%     64.06% |      314006      1.56%     65.61% |      314012      1.56%     67.17% |      313983      1.56%     68.73% |      314423      1.56%     70.30% |      315183      1.57%     71.86% |      314451      1.56%     73.42% |      314356      1.56%     74.98% |      314244      1.56%     76.54% |      314771      1.56%     78.11% |      313868      1.56%     79.67% |      315130      1.57%     81.23% |      314932      1.56%     82.80% |      315292      1.57%     84.36% |      315177      1.57%     85.93% |      315828      1.57%     87.50% |      314325      1.56%     89.06% |      315846      1.57%     90.63% |      313973      1.56%     92.18% |      314698      1.56%     93.75% |      313873      1.56%     95.31% |      315406      1.57%     96.87% |      315344      1.57%     98.44% |      314368      1.56%    100.00% (Unspecified)
system.ruby.L1Cache_Controller.Response::total     20135121                       (Unspecified)
system.ruby.L1Cache_Controller.I.Request |      314383      1.56%      1.56% |      314987      1.56%      3.13% |      314649      1.56%      4.69% |      314628      1.56%      6.25% |      315170      1.57%      7.82% |      315355      1.57%      9.38% |      314757      1.56%     10.95% |      314464      1.56%     12.51% |      315270      1.57%     14.07% |      314606      1.56%     15.64% |      314767      1.56%     17.20% |      314769      1.56%     18.76% |      314914      1.56%     20.33% |      313779      1.56%     21.89% |      314915      1.56%     23.45% |      314129      1.56%     25.01% |      313784      1.56%     26.57% |      315162      1.57%     28.14% |      313187      1.56%     29.69% |      314491      1.56%     31.25% |      315172      1.57%     32.82% |      315168      1.57%     34.38% |      314115      1.56%     35.94% |      313780      1.56%     37.50% |      314828      1.56%     39.07% |      314850      1.56%     40.63% |      314208      1.56%     42.19% |      313468      1.56%     43.75% |      313717      1.56%     45.31% |      314806      1.56%     46.87% |      313791      1.56%     48.43% |      315585      1.57%     50.00% |      315056      1.56%     51.56% |      315121      1.57%     53.13% |      313730      1.56%     54.68% |      314954      1.56%     56.25% |      314428      1.56%     57.81% |      313674      1.56%     59.37% |      314859      1.56%     60.93% |      314254      1.56%     62.49% |      314036      1.56%     64.05% |      314968      1.56%     65.62% |      314115      1.56%     67.18% |      314187      1.56%     68.74% |      314783      1.56%     70.30% |      314887      1.56%     71.87% |      313865      1.56%     73.43% |      314480      1.56%     74.99% |      314171      1.56%     76.55% |      314256      1.56%     78.11% |      314634      1.56%     79.67% |      314989      1.56%     81.24% |      314682      1.56%     82.80% |      315079      1.57%     84.36% |      314769      1.56%     85.93% |      314013      1.56%     87.49% |      315409      1.57%     89.05% |      314959      1.56%     90.62% |      315360      1.57%     92.19% |      313944      1.56%     93.74% |      315043      1.56%     95.31% |      314576      1.56%     96.87% |      314526      1.56%     98.43% |      315283      1.57%    100.00% (Unspecified)
system.ruby.L1Cache_Controller.I.Request::total     20132744                       (Unspecified)
system.ruby.L1Cache_Controller.I.Forward |      314143      1.56%      1.56% |      314735      1.56%      3.12% |      314422      1.56%      4.69% |      314354      1.56%      6.25% |      313784      1.56%      7.81% |      314265      1.56%      9.37% |      314677      1.56%     10.93% |      313754      1.56%     12.49% |      314169      1.56%     14.05% |      314900      1.56%     15.61% |      314848      1.56%     17.18% |      314220      1.56%     18.74% |      314870      1.56%     20.30% |      314628      1.56%     21.87% |      314634      1.56%     23.43% |      314500      1.56%     24.99% |      314668      1.56%     26.56% |      314948      1.56%     28.12% |      315526      1.57%     29.69% |      315020      1.56%     31.25% |      313978      1.56%     32.81% |      314290      1.56%     34.37% |      314107      1.56%     35.93% |      315448      1.57%     37.50% |      315472      1.57%     39.07% |      313693      1.56%     40.63% |      314205      1.56%     42.19% |      314924      1.56%     43.75% |      314348      1.56%     45.31% |      314687      1.56%     46.88% |      313842      1.56%     48.44% |      314205      1.56%     50.00% |      313328      1.56%     51.55% |      314558      1.56%     53.12% |      313994      1.56%     54.68% |      315126      1.57%     56.24% |      314417      1.56%     57.80% |      314529      1.56%     59.37% |      314707      1.56%     60.93% |      314544      1.56%     62.49% |      314710      1.56%     64.06% |      314616      1.56%     65.62% |      314477      1.56%     67.18% |      313972      1.56%     68.74% |      314205      1.56%     70.30% |      314377      1.56%     71.86% |      314833      1.56%     73.43% |      314545      1.56%     74.99% |      315105      1.57%     76.55% |      313977      1.56%     78.11% |      313636      1.56%     79.67% |      315169      1.57%     81.24% |      314887      1.56%     82.80% |      314593      1.56%     84.37% |      314777      1.56%     85.93% |      314958      1.56%     87.49% |      314916      1.56%     89.06% |      313974      1.56%     90.62% |      314486      1.56%     92.18% |      313943      1.56%     93.74% |      314755      1.56%     95.30% |      314692      1.56%     96.87% |      315103      1.57%     98.43% |      315576      1.57%    100.00% (Unspecified)
system.ruby.L1Cache_Controller.I.Forward::total     20129749                       (Unspecified)
system.ruby.L1Cache_Controller.I.Response |      314123      1.56%      1.56% |      314810      1.56%      3.12% |      315205      1.57%      4.69% |      314389      1.56%      6.25% |      315033      1.56%      7.82% |      314301      1.56%      9.38% |      313979      1.56%     10.94% |      315342      1.57%     12.50% |      314286      1.56%     14.06% |      313904      1.56%     15.62% |      314162      1.56%     17.18% |      315329      1.57%     18.75% |      315547      1.57%     20.31% |      314442      1.56%     21.88% |      313620      1.56%     23.43% |      313942      1.56%     24.99% |      314553      1.56%     26.56% |      315372      1.57%     28.12% |      315111      1.56%     29.69% |      314629      1.56%     31.25% |      314082      1.56%     32.81% |      313920      1.56%     34.37% |      314734      1.56%     35.93% |      315126      1.57%     37.50% |      314936      1.56%     39.06% |      314031      1.56%     40.62% |      314423      1.56%     42.18% |      314486      1.56%     43.74% |      314732      1.56%     45.31% |      313704      1.56%     46.86% |      314244      1.56%     48.43% |      315072      1.56%     49.99% |      315441      1.57%     51.56% |      314592      1.56%     53.12% |      315631      1.57%     54.69% |      313473      1.56%     56.24% |      314708      1.56%     57.81% |      314421      1.56%     59.37% |      314589      1.56%     60.93% |      314275      1.56%     62.49% |      314933      1.56%     64.06% |      314006      1.56%     65.61% |      314012      1.56%     67.17% |      313983      1.56%     68.73% |      314423      1.56%     70.30% |      315183      1.57%     71.86% |      314451      1.56%     73.42% |      314356      1.56%     74.98% |      314244      1.56%     76.54% |      314771      1.56%     78.11% |      313868      1.56%     79.67% |      315130      1.57%     81.23% |      314932      1.56%     82.80% |      315292      1.57%     84.36% |      315177      1.57%     85.93% |      315828      1.57%     87.50% |      314325      1.56%     89.06% |      315846      1.57%     90.63% |      313973      1.56%     92.18% |      314698      1.56%     93.75% |      313873      1.56%     95.31% |      315406      1.57%     96.87% |      315344      1.57%     98.44% |      314368      1.56%    100.00% (Unspecified)
system.ruby.L1Cache_Controller.I.Response::total     20135121                       (Unspecified)
system.ruby.RequestType.LD.latency_hist_seqr::bucket_size            1                       (Unspecified)
system.ruby.RequestType.LD.latency_hist_seqr::max_bucket            9                       (Unspecified)
system.ruby.RequestType.LD.latency_hist_seqr::samples     20132744                       (Unspecified)
system.ruby.RequestType.LD.latency_hist_seqr::mean            1                       (Unspecified)
system.ruby.RequestType.LD.latency_hist_seqr::gmean            1                       (Unspecified)
system.ruby.RequestType.LD.latency_hist_seqr |           0      0.00%      0.00% |    20132744    100.00%    100.00% |           0      0.00%    100.00% |           0      0.00%    100.00% |           0      0.00%    100.00% |           0      0.00%    100.00% |           0      0.00%    100.00% |           0      0.00%    100.00% |           0      0.00%    100.00% |           0      0.00%    100.00% (Unspecified)
system.ruby.RequestType.LD.latency_hist_seqr::total     20132744                       (Unspecified)
system.ruby.RequestType.LD.hit_latency_hist_seqr::bucket_size            1                       (Unspecified)
system.ruby.RequestType.LD.hit_latency_hist_seqr::max_bucket            9                       (Unspecified)
system.ruby.RequestType.LD.hit_latency_hist_seqr::samples     20132744                       (Unspecified)
system.ruby.RequestType.LD.hit_latency_hist_seqr::mean            1                       (Unspecified)
system.ruby.RequestType.LD.hit_latency_hist_seqr::gmean            1                       (Unspecified)
system.ruby.RequestType.LD.hit_latency_hist_seqr |           0      0.00%      0.00% |    20132744    100.00%    100.00% |           0      0.00%    100.00% |           0      0.00%    100.00% |           0      0.00%    100.00% |           0      0.00%    100.00% |           0      0.00%    100.00% |           0      0.00%    100.00% |           0      0.00%    100.00% |           0      0.00%    100.00% (Unspecified)
system.ruby.RequestType.LD.hit_latency_hist_seqr::total     20132744                       (Unspecified)
system.ruby.RequestType.ST.latency_hist_seqr::bucket_size            1                       (Unspecified)
system.ruby.RequestType.ST.latency_hist_seqr::max_bucket            9                       (Unspecified)
system.ruby.RequestType.ST.latency_hist_seqr::samples     20135121                       (Unspecified)
system.ruby.RequestType.ST.latency_hist_seqr::mean            1                       (Unspecified)
system.ruby.RequestType.ST.latency_hist_seqr::gmean            1                       (Unspecified)
system.ruby.RequestType.ST.latency_hist_seqr |           0      0.00%      0.00% |    20135121    100.00%    100.00% |           0      0.00%    100.00% |           0      0.00%    100.00% |           0      0.00%    100.00% |           0      0.00%    100.00% |           0      0.00%    100.00% |           0      0.00%    100.00% |           0      0.00%    100.00% |           0      0.00%    100.00% (Unspecified)
system.ruby.RequestType.ST.latency_hist_seqr::total     20135121                       (Unspecified)
system.ruby.RequestType.ST.hit_latency_hist_seqr::bucket_size            1                       (Unspecified)
system.ruby.RequestType.ST.hit_latency_hist_seqr::max_bucket            9                       (Unspecified)
system.ruby.RequestType.ST.hit_latency_hist_seqr::samples     20135121                       (Unspecified)
system.ruby.RequestType.ST.hit_latency_hist_seqr::mean            1                       (Unspecified)
system.ruby.RequestType.ST.hit_latency_hist_seqr::gmean            1                       (Unspecified)
system.ruby.RequestType.ST.hit_latency_hist_seqr |           0      0.00%      0.00% |    20135121    100.00%    100.00% |           0      0.00%    100.00% |           0      0.00%    100.00% |           0      0.00%    100.00% |           0      0.00%    100.00% |           0      0.00%    100.00% |           0      0.00%    100.00% |           0      0.00%    100.00% |           0      0.00%    100.00% (Unspecified)
system.ruby.RequestType.ST.hit_latency_hist_seqr::total     20135121                       (Unspecified)
system.ruby.RequestType.IFETCH.latency_hist_seqr::bucket_size            1                       (Unspecified)
system.ruby.RequestType.IFETCH.latency_hist_seqr::max_bucket            9                       (Unspecified)
system.ruby.RequestType.IFETCH.latency_hist_seqr::samples     20129749                       (Unspecified)
system.ruby.RequestType.IFETCH.latency_hist_seqr::mean            1                       (Unspecified)
system.ruby.RequestType.IFETCH.latency_hist_seqr::gmean            1                       (Unspecified)
system.ruby.RequestType.IFETCH.latency_hist_seqr |           0      0.00%      0.00% |    20129749    100.00%    100.00% |           0      0.00%    100.00% |           0      0.00%    100.00% |           0      0.00%    100.00% |           0      0.00%    100.00% |           0      0.00%    100.00% |           0      0.00%    100.00% |           0      0.00%    100.00% |           0      0.00%    100.00% (Unspecified)
system.ruby.RequestType.IFETCH.latency_hist_seqr::total     20129749                       (Unspecified)
system.ruby.RequestType.IFETCH.hit_latency_hist_seqr::bucket_size            1                       (Unspecified)
system.ruby.RequestType.IFETCH.hit_latency_hist_seqr::max_bucket            9                       (Unspecified)
system.ruby.RequestType.IFETCH.hit_latency_hist_seqr::samples     20129749                       (Unspecified)
system.ruby.RequestType.IFETCH.hit_latency_hist_seqr::mean            1                       (Unspecified)
system.ruby.RequestType.IFETCH.hit_latency_hist_seqr::gmean            1                       (Unspecified)
system.ruby.RequestType.IFETCH.hit_latency_hist_seqr |           0      0.00%      0.00% |    20129749    100.00%    100.00% |           0      0.00%    100.00% |           0      0.00%    100.00% |           0      0.00%    100.00% |           0      0.00%    100.00% |           0      0.00%    100.00% |           0      0.00%    100.00% |           0      0.00%    100.00% |           0      0.00%    100.00% (Unspecified)
system.ruby.RequestType.IFETCH.hit_latency_hist_seqr::total     20129749                       (Unspecified)
system.ruby.clk_domain.clock                      250                       # Clock period in ticks (Tick)
system.ruby.dir_cntrl0.forwardToDir.m_msg_count       314814                       # Number of messages passed the buffer (Count)
system.ruby.dir_cntrl0.forwardToDir.m_buf_msgs     0.036649                       # Average number of messages in buffer ((Count/Tick))
system.ruby.dir_cntrl0.power_state.pwrStateResidencyTicks::UNDEFINED   2147483750                       # Cumulative time (in ticks) in various power states (Tick)
system.ruby.dir_cntrl0.requestToDir.m_msg_count       313659                       # Number of messages passed the buffer (Count)
system.ruby.dir_cntrl0.requestToDir.m_buf_msgs     0.036515                       # Average number of messages in buffer ((Count/Tick))
system.ruby.dir_cntrl0.responseToDir.m_msg_count       246522                       # Number of messages passed the buffer (Count)
system.ruby.dir_cntrl0.responseToDir.m_buf_msgs     0.028699                       # Average number of messages in buffer ((Count/Tick))
system.ruby.dir_cntrl1.forwardToDir.m_msg_count       314065                       # Number of messages passed the buffer (Count)
system.ruby.dir_cntrl1.forwardToDir.m_buf_msgs     0.036562                       # Average number of messages in buffer ((Count/Tick))
system.ruby.dir_cntrl1.power_state.pwrStateResidencyTicks::UNDEFINED   2147483750                       # Cumulative time (in ticks) in various power states (Tick)
system.ruby.dir_cntrl1.requestToDir.m_msg_count       314694                       # Number of messages passed the buffer (Count)
system.ruby.dir_cntrl1.requestToDir.m_buf_msgs     0.036635                       # Average number of messages in buffer ((Count/Tick))
system.ruby.dir_cntrl1.responseToDir.m_msg_count       247288                       # Number of messages passed the buffer (Count)
system.ruby.dir_cntrl1.responseToDir.m_buf_msgs     0.028788                       # Average number of messages in buffer ((Count/Tick))
system.ruby.dir_cntrl10.forwardToDir.m_msg_count       315705                       # Number of messages passed the buffer (Count)
system.ruby.dir_cntrl10.forwardToDir.m_buf_msgs     0.036753                       # Average number of messages in buffer ((Count/Tick))
system.ruby.dir_cntrl10.power_state.pwrStateResidencyTicks::UNDEFINED   2147483750                       # Cumulative time (in ticks) in various power states (Tick)
system.ruby.dir_cntrl10.requestToDir.m_msg_count       314904                       # Number of messages passed the buffer (Count)
system.ruby.dir_cntrl10.requestToDir.m_buf_msgs     0.036660                       # Average number of messages in buffer ((Count/Tick))
system.ruby.dir_cntrl10.responseToDir.m_msg_count       246775                       # Number of messages passed the buffer (Count)
system.ruby.dir_cntrl10.responseToDir.m_buf_msgs     0.028728                       # Average number of messages in buffer ((Count/Tick))
system.ruby.dir_cntrl11.forwardToDir.m_msg_count       314165                       # Number of messages passed the buffer (Count)
system.ruby.dir_cntrl11.forwardToDir.m_buf_msgs     0.036574                       # Average number of messages in buffer ((Count/Tick))
system.ruby.dir_cntrl11.power_state.pwrStateResidencyTicks::UNDEFINED   2147483750                       # Cumulative time (in ticks) in various power states (Tick)
system.ruby.dir_cntrl11.requestToDir.m_msg_count       315740                       # Number of messages passed the buffer (Count)
system.ruby.dir_cntrl11.requestToDir.m_buf_msgs     0.036757                       # Average number of messages in buffer ((Count/Tick))
system.ruby.dir_cntrl11.responseToDir.m_msg_count       246615                       # Number of messages passed the buffer (Count)
system.ruby.dir_cntrl11.responseToDir.m_buf_msgs     0.028710                       # Average number of messages in buffer ((Count/Tick))
system.ruby.dir_cntrl12.forwardToDir.m_msg_count       313203                       # Number of messages passed the buffer (Count)
system.ruby.dir_cntrl12.forwardToDir.m_buf_msgs     0.036462                       # Average number of messages in buffer ((Count/Tick))
system.ruby.dir_cntrl12.power_state.pwrStateResidencyTicks::UNDEFINED   2147483750                       # Cumulative time (in ticks) in various power states (Tick)
system.ruby.dir_cntrl12.requestToDir.m_msg_count       315007                       # Number of messages passed the buffer (Count)
system.ruby.dir_cntrl12.requestToDir.m_buf_msgs     0.036672                       # Average number of messages in buffer ((Count/Tick))
system.ruby.dir_cntrl12.responseToDir.m_msg_count       246938                       # Number of messages passed the buffer (Count)
system.ruby.dir_cntrl12.responseToDir.m_buf_msgs     0.028747                       # Average number of messages in buffer ((Count/Tick))
system.ruby.dir_cntrl13.forwardToDir.m_msg_count       315218                       # Number of messages passed the buffer (Count)
system.ruby.dir_cntrl13.forwardToDir.m_buf_msgs     0.036696                       # Average number of messages in buffer ((Count/Tick))
system.ruby.dir_cntrl13.power_state.pwrStateResidencyTicks::UNDEFINED   2147483750                       # Cumulative time (in ticks) in various power states (Tick)
system.ruby.dir_cntrl13.requestToDir.m_msg_count       313753                       # Number of messages passed the buffer (Count)
system.ruby.dir_cntrl13.requestToDir.m_buf_msgs     0.036526                       # Average number of messages in buffer ((Count/Tick))
system.ruby.dir_cntrl13.responseToDir.m_msg_count       247545                       # Number of messages passed the buffer (Count)
system.ruby.dir_cntrl13.responseToDir.m_buf_msgs     0.028818                       # Average number of messages in buffer ((Count/Tick))
system.ruby.dir_cntrl14.forwardToDir.m_msg_count       314556                       # Number of messages passed the buffer (Count)
system.ruby.dir_cntrl14.forwardToDir.m_buf_msgs     0.036619                       # Average number of messages in buffer ((Count/Tick))
system.ruby.dir_cntrl14.power_state.pwrStateResidencyTicks::UNDEFINED   2147483750                       # Cumulative time (in ticks) in various power states (Tick)
system.ruby.dir_cntrl14.requestToDir.m_msg_count       313751                       # Number of messages passed the buffer (Count)
system.ruby.dir_cntrl14.requestToDir.m_buf_msgs     0.036525                       # Average number of messages in buffer ((Count/Tick))
system.ruby.dir_cntrl14.responseToDir.m_msg_count       246567                       # Number of messages passed the buffer (Count)
system.ruby.dir_cntrl14.responseToDir.m_buf_msgs     0.028704                       # Average number of messages in buffer ((Count/Tick))
system.ruby.dir_cntrl15.forwardToDir.m_msg_count       314820                       # Number of messages passed the buffer (Count)
system.ruby.dir_cntrl15.forwardToDir.m_buf_msgs     0.036650                       # Average number of messages in buffer ((Count/Tick))
system.ruby.dir_cntrl15.power_state.pwrStateResidencyTicks::UNDEFINED   2147483750                       # Cumulative time (in ticks) in various power states (Tick)
system.ruby.dir_cntrl15.requestToDir.m_msg_count       314870                       # Number of messages passed the buffer (Count)
system.ruby.dir_cntrl15.requestToDir.m_buf_msgs     0.036656                       # Average number of messages in buffer ((Count/Tick))
system.ruby.dir_cntrl15.responseToDir.m_msg_count       247307                       # Number of messages passed the buffer (Count)
system.ruby.dir_cntrl15.responseToDir.m_buf_msgs     0.028790                       # Average number of messages in buffer ((Count/Tick))
system.ruby.dir_cntrl16.forwardToDir.m_msg_count       315451                       # Number of messages passed the buffer (Count)
system.ruby.dir_cntrl16.forwardToDir.m_buf_msgs     0.036723                       # Average number of messages in buffer ((Count/Tick))
system.ruby.dir_cntrl16.power_state.pwrStateResidencyTicks::UNDEFINED   2147483750                       # Cumulative time (in ticks) in various power states (Tick)
system.ruby.dir_cntrl16.requestToDir.m_msg_count       314009                       # Number of messages passed the buffer (Count)
system.ruby.dir_cntrl16.requestToDir.m_buf_msgs     0.036555                       # Average number of messages in buffer ((Count/Tick))
system.ruby.dir_cntrl16.responseToDir.m_msg_count       246736                       # Number of messages passed the buffer (Count)
system.ruby.dir_cntrl16.responseToDir.m_buf_msgs     0.028724                       # Average number of messages in buffer ((Count/Tick))
system.ruby.dir_cntrl17.forwardToDir.m_msg_count       315034                       # Number of messages passed the buffer (Count)
system.ruby.dir_cntrl17.forwardToDir.m_buf_msgs     0.036675                       # Average number of messages in buffer ((Count/Tick))
system.ruby.dir_cntrl17.power_state.pwrStateResidencyTicks::UNDEFINED   2147483750                       # Cumulative time (in ticks) in various power states (Tick)
system.ruby.dir_cntrl17.requestToDir.m_msg_count       315133                       # Number of messages passed the buffer (Count)
system.ruby.dir_cntrl17.requestToDir.m_buf_msgs     0.036686                       # Average number of messages in buffer ((Count/Tick))
system.ruby.dir_cntrl17.responseToDir.m_msg_count       246734                       # Number of messages passed the buffer (Count)
system.ruby.dir_cntrl17.responseToDir.m_buf_msgs     0.028724                       # Average number of messages in buffer ((Count/Tick))
system.ruby.dir_cntrl18.forwardToDir.m_msg_count       314255                       # Number of messages passed the buffer (Count)
system.ruby.dir_cntrl18.forwardToDir.m_buf_msgs     0.036584                       # Average number of messages in buffer ((Count/Tick))
system.ruby.dir_cntrl18.power_state.pwrStateResidencyTicks::UNDEFINED   2147483750                       # Cumulative time (in ticks) in various power states (Tick)
system.ruby.dir_cntrl18.requestToDir.m_msg_count       314707                       # Number of messages passed the buffer (Count)
system.ruby.dir_cntrl18.requestToDir.m_buf_msgs     0.036637                       # Average number of messages in buffer ((Count/Tick))
system.ruby.dir_cntrl18.responseToDir.m_msg_count       248012                       # Number of messages passed the buffer (Count)
system.ruby.dir_cntrl18.responseToDir.m_buf_msgs     0.028872                       # Average number of messages in buffer ((Count/Tick))
system.ruby.dir_cntrl19.forwardToDir.m_msg_count       314748                       # Number of messages passed the buffer (Count)
system.ruby.dir_cntrl19.forwardToDir.m_buf_msgs     0.036641                       # Average number of messages in buffer ((Count/Tick))
system.ruby.dir_cntrl19.power_state.pwrStateResidencyTicks::UNDEFINED   2147483750                       # Cumulative time (in ticks) in various power states (Tick)
system.ruby.dir_cntrl19.requestToDir.m_msg_count       314599                       # Number of messages passed the buffer (Count)
system.ruby.dir_cntrl19.requestToDir.m_buf_msgs     0.036624                       # Average number of messages in buffer ((Count/Tick))
system.ruby.dir_cntrl19.responseToDir.m_msg_count       245495                       # Number of messages passed the buffer (Count)
system.ruby.dir_cntrl19.responseToDir.m_buf_msgs     0.028579                       # Average number of messages in buffer ((Count/Tick))
system.ruby.dir_cntrl2.forwardToDir.m_msg_count       314424                       # Number of messages passed the buffer (Count)
system.ruby.dir_cntrl2.forwardToDir.m_buf_msgs     0.036604                       # Average number of messages in buffer ((Count/Tick))
system.ruby.dir_cntrl2.power_state.pwrStateResidencyTicks::UNDEFINED   2147483750                       # Cumulative time (in ticks) in various power states (Tick)
system.ruby.dir_cntrl2.requestToDir.m_msg_count       314666                       # Number of messages passed the buffer (Count)
system.ruby.dir_cntrl2.requestToDir.m_buf_msgs     0.036632                       # Average number of messages in buffer ((Count/Tick))
system.ruby.dir_cntrl2.responseToDir.m_msg_count       246587                       # Number of messages passed the buffer (Count)
system.ruby.dir_cntrl2.responseToDir.m_buf_msgs     0.028707                       # Average number of messages in buffer ((Count/Tick))
system.ruby.dir_cntrl20.forwardToDir.m_msg_count       314731                       # Number of messages passed the buffer (Count)
system.ruby.dir_cntrl20.forwardToDir.m_buf_msgs     0.036640                       # Average number of messages in buffer ((Count/Tick))
system.ruby.dir_cntrl20.power_state.pwrStateResidencyTicks::UNDEFINED   2147483750                       # Cumulative time (in ticks) in various power states (Tick)
system.ruby.dir_cntrl20.requestToDir.m_msg_count       315400                       # Number of messages passed the buffer (Count)
system.ruby.dir_cntrl20.requestToDir.m_buf_msgs     0.036717                       # Average number of messages in buffer ((Count/Tick))
system.ruby.dir_cntrl20.responseToDir.m_msg_count       247397                       # Number of messages passed the buffer (Count)
system.ruby.dir_cntrl20.responseToDir.m_buf_msgs     0.028801                       # Average number of messages in buffer ((Count/Tick))
system.ruby.dir_cntrl21.forwardToDir.m_msg_count       314888                       # Number of messages passed the buffer (Count)
system.ruby.dir_cntrl21.forwardToDir.m_buf_msgs     0.036658                       # Average number of messages in buffer ((Count/Tick))
system.ruby.dir_cntrl21.power_state.pwrStateResidencyTicks::UNDEFINED   2147483750                       # Cumulative time (in ticks) in various power states (Tick)
system.ruby.dir_cntrl21.requestToDir.m_msg_count       314281                       # Number of messages passed the buffer (Count)
system.ruby.dir_cntrl21.requestToDir.m_buf_msgs     0.036587                       # Average number of messages in buffer ((Count/Tick))
system.ruby.dir_cntrl21.responseToDir.m_msg_count       246735                       # Number of messages passed the buffer (Count)
system.ruby.dir_cntrl21.responseToDir.m_buf_msgs     0.028724                       # Average number of messages in buffer ((Count/Tick))
system.ruby.dir_cntrl22.forwardToDir.m_msg_count       313607                       # Number of messages passed the buffer (Count)
system.ruby.dir_cntrl22.forwardToDir.m_buf_msgs     0.036509                       # Average number of messages in buffer ((Count/Tick))
system.ruby.dir_cntrl22.power_state.pwrStateResidencyTicks::UNDEFINED   2147483750                       # Cumulative time (in ticks) in various power states (Tick)
system.ruby.dir_cntrl22.requestToDir.m_msg_count       314207                       # Number of messages passed the buffer (Count)
system.ruby.dir_cntrl22.requestToDir.m_buf_msgs     0.036579                       # Average number of messages in buffer ((Count/Tick))
system.ruby.dir_cntrl22.responseToDir.m_msg_count       246761                       # Number of messages passed the buffer (Count)
system.ruby.dir_cntrl22.responseToDir.m_buf_msgs     0.028727                       # Average number of messages in buffer ((Count/Tick))
system.ruby.dir_cntrl23.forwardToDir.m_msg_count       314794                       # Number of messages passed the buffer (Count)
system.ruby.dir_cntrl23.forwardToDir.m_buf_msgs     0.036647                       # Average number of messages in buffer ((Count/Tick))
system.ruby.dir_cntrl23.power_state.pwrStateResidencyTicks::UNDEFINED   2147483750                       # Cumulative time (in ticks) in various power states (Tick)
system.ruby.dir_cntrl23.requestToDir.m_msg_count       314230                       # Number of messages passed the buffer (Count)
system.ruby.dir_cntrl23.requestToDir.m_buf_msgs     0.036581                       # Average number of messages in buffer ((Count/Tick))
system.ruby.dir_cntrl23.responseToDir.m_msg_count       247113                       # Number of messages passed the buffer (Count)
system.ruby.dir_cntrl23.responseToDir.m_buf_msgs     0.028768                       # Average number of messages in buffer ((Count/Tick))
system.ruby.dir_cntrl24.forwardToDir.m_msg_count       314824                       # Number of messages passed the buffer (Count)
system.ruby.dir_cntrl24.forwardToDir.m_buf_msgs     0.036650                       # Average number of messages in buffer ((Count/Tick))
system.ruby.dir_cntrl24.power_state.pwrStateResidencyTicks::UNDEFINED   2147483750                       # Cumulative time (in ticks) in various power states (Tick)
system.ruby.dir_cntrl24.requestToDir.m_msg_count       314375                       # Number of messages passed the buffer (Count)
system.ruby.dir_cntrl24.requestToDir.m_buf_msgs     0.036598                       # Average number of messages in buffer ((Count/Tick))
system.ruby.dir_cntrl24.responseToDir.m_msg_count       247279                       # Number of messages passed the buffer (Count)
system.ruby.dir_cntrl24.responseToDir.m_buf_msgs     0.028787                       # Average number of messages in buffer ((Count/Tick))
system.ruby.dir_cntrl25.forwardToDir.m_msg_count       314251                       # Number of messages passed the buffer (Count)
system.ruby.dir_cntrl25.forwardToDir.m_buf_msgs     0.036584                       # Average number of messages in buffer ((Count/Tick))
system.ruby.dir_cntrl25.power_state.pwrStateResidencyTicks::UNDEFINED   2147483750                       # Cumulative time (in ticks) in various power states (Tick)
system.ruby.dir_cntrl25.requestToDir.m_msg_count       313688                       # Number of messages passed the buffer (Count)
system.ruby.dir_cntrl25.requestToDir.m_buf_msgs     0.036518                       # Average number of messages in buffer ((Count/Tick))
system.ruby.dir_cntrl25.responseToDir.m_msg_count       247240                       # Number of messages passed the buffer (Count)
system.ruby.dir_cntrl25.responseToDir.m_buf_msgs     0.028783                       # Average number of messages in buffer ((Count/Tick))
system.ruby.dir_cntrl26.forwardToDir.m_msg_count       314752                       # Number of messages passed the buffer (Count)
system.ruby.dir_cntrl26.forwardToDir.m_buf_msgs     0.036642                       # Average number of messages in buffer ((Count/Tick))
system.ruby.dir_cntrl26.power_state.pwrStateResidencyTicks::UNDEFINED   2147483750                       # Cumulative time (in ticks) in various power states (Tick)
system.ruby.dir_cntrl26.requestToDir.m_msg_count       315271                       # Number of messages passed the buffer (Count)
system.ruby.dir_cntrl26.requestToDir.m_buf_msgs     0.036702                       # Average number of messages in buffer ((Count/Tick))
system.ruby.dir_cntrl26.responseToDir.m_msg_count       246805                       # Number of messages passed the buffer (Count)
system.ruby.dir_cntrl26.responseToDir.m_buf_msgs     0.028732                       # Average number of messages in buffer ((Count/Tick))
system.ruby.dir_cntrl27.forwardToDir.m_msg_count       313637                       # Number of messages passed the buffer (Count)
system.ruby.dir_cntrl27.forwardToDir.m_buf_msgs     0.036512                       # Average number of messages in buffer ((Count/Tick))
system.ruby.dir_cntrl27.power_state.pwrStateResidencyTicks::UNDEFINED   2147483750                       # Cumulative time (in ticks) in various power states (Tick)
[...]
system.ruby.network.sankey.vcvn35.vcvn5             0                       (Unspecified)
system.ruby.network.sankey.vcvn35.vcvn6             0                       (Unspecified)
system.ruby.network.sankey.vcvn35.vcvn7             0                       (Unspecified)
system.ruby.network.sankey.vcvn35.vcvn8             0                       (Unspecified)
system.ruby.network.sankey.vcvn35.vcvn9             0                       (Unspecified)
system.ruby.network.sankey.vcvn4.vcvn0        1466089                       (Unspecified)
system.ruby.network.sankey.vcvn4.vcvn1         286893                       (Unspecified)
system.ruby.network.sankey.vcvn4.vcvn10            15                       (Unspecified)
system.ruby.network.sankey.vcvn4.vcvn11             9                       (Unspecified)
system.ruby.network.sankey.vcvn4.vcvn12             0                       (Unspecified)
system.ruby.network.sankey.vcvn4.vcvn13             0                       (Unspecified)
system.ruby.network.sankey.vcvn4.vcvn14             0                       (Unspecified)
system.ruby.network.sankey.vcvn4.vcvn15             0                       (Unspecified)
system.ruby.network.sankey.vcvn4.vcvn16             0                       (Unspecified)
system.ruby.network.sankey.vcvn4.vcvn17             0                       (Unspecified)
system.ruby.network.sankey.vcvn4.vcvn18             0                       (Unspecified)
system.ruby.network.sankey.vcvn4.vcvn19             0                       (Unspecified)
system.ruby.network.sankey.vcvn4.vcvn2          31950                       (Unspecified)
system.ruby.network.sankey.vcvn4.vcvn20             0                       (Unspecified)
system.ruby.network.sankey.vcvn4.vcvn21             0                       (Unspecified)
system.ruby.network.sankey.vcvn4.vcvn22             0                       (Unspecified)
system.ruby.network.sankey.vcvn4.vcvn23             0                       (Unspecified)
system.ruby.network.sankey.vcvn4.vcvn24             0                       (Unspecified)
system.ruby.network.sankey.vcvn4.vcvn25             0                       (Unspecified)
system.ruby.network.sankey.vcvn4.vcvn26             0                       (Unspecified)
system.ruby.network.sankey.vcvn4.vcvn27             0                       (Unspecified)
system.ruby.network.sankey.vcvn4.vcvn28             0                       (Unspecified)
system.ruby.network.sankey.vcvn4.vcvn29             0                       (Unspecified)
system.ruby.network.sankey.vcvn4.vcvn3           2413                       (Unspecified)
system.ruby.network.sankey.vcvn4.vcvn30             0                       (Unspecified)
system.ruby.network.sankey.vcvn4.vcvn31             0                       (Unspecified)
system.ruby.network.sankey.vcvn4.vcvn32             0                       (Unspecified)
system.ruby.network.sankey.vcvn4.vcvn33             0                       (Unspecified)
system.ruby.network.sankey.vcvn4.vcvn34             0                       (Unspecified)
system.ruby.network.sankey.vcvn4.vcvn35             0                       (Unspecified)
system.ruby.network.sankey.vcvn4.vcvn4            107                       (Unspecified)
system.ruby.network.sankey.vcvn4.vcvn5              4                       (Unspecified)
system.ruby.network.sankey.vcvn4.vcvn6              0                       (Unspecified)
system.ruby.network.sankey.vcvn4.vcvn7              0                       (Unspecified)
system.ruby.network.sankey.vcvn4.vcvn8              0                       (Unspecified)
system.ruby.network.sankey.vcvn4.vcvn9              0                       (Unspecified)
system.ruby.network.sankey.vcvn5.vcvn0        1467020                       (Unspecified)
system.ruby.network.sankey.vcvn5.vcvn1         285918                       (Unspecified)
system.ruby.network.sankey.vcvn5.vcvn10            17                       (Unspecified)
system.ruby.network.sankey.vcvn5.vcvn11             8                       (Unspecified)
system.ruby.network.sankey.vcvn5.vcvn12             0                       (Unspecified)
system.ruby.network.sankey.vcvn5.vcvn13             0                       (Unspecified)
system.ruby.network.sankey.vcvn5.vcvn14             0                       (Unspecified)
system.ruby.network.sankey.vcvn5.vcvn15             0                       (Unspecified)
system.ruby.network.sankey.vcvn5.vcvn16             0                       (Unspecified)
system.ruby.network.sankey.vcvn5.vcvn17             0                       (Unspecified)
system.ruby.network.sankey.vcvn5.vcvn18             0                       (Unspecified)
system.ruby.network.sankey.vcvn5.vcvn19             0                       (Unspecified)
system.ruby.network.sankey.vcvn5.vcvn2          32027                       (Unspecified)
system.ruby.network.sankey.vcvn5.vcvn20             0                       (Unspecified)
system.ruby.network.sankey.vcvn5.vcvn21             0                       (Unspecified)
system.ruby.network.sankey.vcvn5.vcvn22             0                       (Unspecified)
system.ruby.network.sankey.vcvn5.vcvn23             0                       (Unspecified)
system.ruby.network.sankey.vcvn5.vcvn24             0                       (Unspecified)
system.ruby.network.sankey.vcvn5.vcvn25             0                       (Unspecified)
system.ruby.network.sankey.vcvn5.vcvn26             0                       (Unspecified)
system.ruby.network.sankey.vcvn5.vcvn27             0                       (Unspecified)
system.ruby.network.sankey.vcvn5.vcvn28             0                       (Unspecified)
system.ruby.network.sankey.vcvn5.vcvn29             0                       (Unspecified)
system.ruby.network.sankey.vcvn5.vcvn3           2362                       (Unspecified)
system.ruby.network.sankey.vcvn5.vcvn30             0                       (Unspecified)
system.ruby.network.sankey.vcvn5.vcvn31             0                       (Unspecified)
system.ruby.network.sankey.vcvn5.vcvn32             0                       (Unspecified)
system.ruby.network.sankey.vcvn5.vcvn33             0                       (Unspecified)
system.ruby.network.sankey.vcvn5.vcvn34             0                       (Unspecified)
system.ruby.network.sankey.vcvn5.vcvn35             0                       (Unspecified)
system.ruby.network.sankey.vcvn5.vcvn4            120                       (Unspecified)
system.ruby.network.sankey.vcvn5.vcvn5              1                       (Unspecified)
system.ruby.network.sankey.vcvn5.vcvn6              0                       (Unspecified)
system.ruby.network.sankey.vcvn5.vcvn7              0                       (Unspecified)
system.ruby.network.sankey.vcvn5.vcvn8              0                       (Unspecified)
system.ruby.network.sankey.vcvn5.vcvn9              0                       (Unspecified)
system.ruby.network.sankey.vcvn6.vcvn0        1466935                       (Unspecified)
system.ruby.network.sankey.vcvn6.vcvn1         286285                       (Unspecified)
system.ruby.network.sankey.vcvn6.vcvn10             9                       (Unspecified)
system.ruby.network.sankey.vcvn6.vcvn11             4                       (Unspecified)
system.ruby.network.sankey.vcvn6.vcvn12             0                       (Unspecified)
system.ruby.network.sankey.vcvn6.vcvn13             0                       (Unspecified)
system.ruby.network.sankey.vcvn6.vcvn14             0                       (Unspecified)
system.ruby.network.sankey.vcvn6.vcvn15             0                       (Unspecified)
system.ruby.network.sankey.vcvn6.vcvn16             0                       (Unspecified)
system.ruby.network.sankey.vcvn6.vcvn17             0                       (Unspecified)
system.ruby.network.sankey.vcvn6.vcvn18             0                       (Unspecified)
system.ruby.network.sankey.vcvn6.vcvn19             0                       (Unspecified)
system.ruby.network.sankey.vcvn6.vcvn2          31739                       (Unspecified)
system.ruby.network.sankey.vcvn6.vcvn20             0                       (Unspecified)
system.ruby.network.sankey.vcvn6.vcvn21             0                       (Unspecified)
system.ruby.network.sankey.vcvn6.vcvn22             0                       (Unspecified)
system.ruby.network.sankey.vcvn6.vcvn23             0                       (Unspecified)
system.ruby.network.sankey.vcvn6.vcvn24             0                       (Unspecified)
system.ruby.network.sankey.vcvn6.vcvn25             0                       (Unspecified)
system.ruby.network.sankey.vcvn6.vcvn26             0                       (Unspecified)
system.ruby.network.sankey.vcvn6.vcvn27             0                       (Unspecified)
system.ruby.network.sankey.vcvn6.vcvn28             0                       (Unspecified)
system.ruby.network.sankey.vcvn6.vcvn29             0                       (Unspecified)
system.ruby.network.sankey.vcvn6.vcvn3           2375                       (Unspecified)
system.ruby.network.sankey.vcvn6.vcvn30             0                       (Unspecified)
system.ruby.network.sankey.vcvn6.vcvn31             0                       (Unspecified)
system.ruby.network.sankey.vcvn6.vcvn32             0                       (Unspecified)
system.ruby.network.sankey.vcvn6.vcvn33             0                       (Unspecified)
system.ruby.network.sankey.vcvn6.vcvn34             0                       (Unspecified)
system.ruby.network.sankey.vcvn6.vcvn35             0                       (Unspecified)
system.ruby.network.sankey.vcvn6.vcvn4            114                       (Unspecified)
system.ruby.network.sankey.vcvn6.vcvn5              6                       (Unspecified)
system.ruby.network.sankey.vcvn6.vcvn6              0                       (Unspecified)
system.ruby.network.sankey.vcvn6.vcvn7              0                       (Unspecified)
system.ruby.network.sankey.vcvn6.vcvn8              0                       (Unspecified)
system.ruby.network.sankey.vcvn6.vcvn9              0                       (Unspecified)
system.ruby.network.sankey.vcvn7.vcvn0        1466220                       (Unspecified)
system.ruby.network.sankey.vcvn7.vcvn1         286524                       (Unspecified)
system.ruby.network.sankey.vcvn7.vcvn10            11                       (Unspecified)
system.ruby.network.sankey.vcvn7.vcvn11             4                       (Unspecified)
system.ruby.network.sankey.vcvn7.vcvn12             0                       (Unspecified)
system.ruby.network.sankey.vcvn7.vcvn13             0                       (Unspecified)
system.ruby.network.sankey.vcvn7.vcvn14             0                       (Unspecified)
system.ruby.network.sankey.vcvn7.vcvn15             0                       (Unspecified)
system.ruby.network.sankey.vcvn7.vcvn16             0                       (Unspecified)
system.ruby.network.sankey.vcvn7.vcvn17             0                       (Unspecified)
system.ruby.network.sankey.vcvn7.vcvn18             0                       (Unspecified)
system.ruby.network.sankey.vcvn7.vcvn19             0                       (Unspecified)
system.ruby.network.sankey.vcvn7.vcvn2          32086                       (Unspecified)
system.ruby.network.sankey.vcvn7.vcvn20             0                       (Unspecified)
system.ruby.network.sankey.vcvn7.vcvn21             0                       (Unspecified)
system.ruby.network.sankey.vcvn7.vcvn22             0                       (Unspecified)
system.ruby.network.sankey.vcvn7.vcvn23             0                       (Unspecified)
system.ruby.network.sankey.vcvn7.vcvn24             0                       (Unspecified)
system.ruby.network.sankey.vcvn7.vcvn25             0                       (Unspecified)
system.ruby.network.sankey.vcvn7.vcvn26             0                       (Unspecified)
system.ruby.network.sankey.vcvn7.vcvn27             0                       (Unspecified)
system.ruby.network.sankey.vcvn7.vcvn28             0                       (Unspecified)
system.ruby.network.sankey.vcvn7.vcvn29             0                       (Unspecified)
system.ruby.network.sankey.vcvn7.vcvn3           2474                       (Unspecified)
system.ruby.network.sankey.vcvn7.vcvn30             0                       (Unspecified)
system.ruby.network.sankey.vcvn7.vcvn31             0                       (Unspecified)
system.ruby.network.sankey.vcvn7.vcvn32             0                       (Unspecified)
system.ruby.network.sankey.vcvn7.vcvn33             0                       (Unspecified)
system.ruby.network.sankey.vcvn7.vcvn34             0                       (Unspecified)
system.ruby.network.sankey.vcvn7.vcvn35             0                       (Unspecified)
system.ruby.network.sankey.vcvn7.vcvn4            136                       (Unspecified)
system.ruby.network.sankey.vcvn7.vcvn5              6                       (Unspecified)
system.ruby.network.sankey.vcvn7.vcvn6              0                       (Unspecified)
system.ruby.network.sankey.vcvn7.vcvn7              0                       (Unspecified)
system.ruby.network.sankey.vcvn7.vcvn8              0                       (Unspecified)
system.ruby.network.sankey.vcvn7.vcvn9              0                       (Unspecified)
system.ruby.network.sankey.vcvn8.vcvn0        1466809                       (Unspecified)
system.ruby.network.sankey.vcvn8.vcvn1         286182                       (Unspecified)
system.ruby.network.sankey.vcvn8.vcvn10            14                       (Unspecified)
system.ruby.network.sankey.vcvn8.vcvn11            15                       (Unspecified)
system.ruby.network.sankey.vcvn8.vcvn12             0                       (Unspecified)
system.ruby.network.sankey.vcvn8.vcvn13             0                       (Unspecified)
system.ruby.network.sankey.vcvn8.vcvn14             0                       (Unspecified)
system.ruby.network.sankey.vcvn8.vcvn15             0                       (Unspecified)
system.ruby.network.sankey.vcvn8.vcvn16             0                       (Unspecified)
system.ruby.network.sankey.vcvn8.vcvn17             0                       (Unspecified)
system.ruby.network.sankey.vcvn8.vcvn18             0                       (Unspecified)
system.ruby.network.sankey.vcvn8.vcvn19             0                       (Unspecified)
system.ruby.network.sankey.vcvn8.vcvn2          31940                       (Unspecified)
system.ruby.network.sankey.vcvn8.vcvn20             0                       (Unspecified)
system.ruby.network.sankey.vcvn8.vcvn21             0                       (Unspecified)
system.ruby.network.sankey.vcvn8.vcvn22             0                       (Unspecified)
system.ruby.network.sankey.vcvn8.vcvn23             0                       (Unspecified)
system.ruby.network.sankey.vcvn8.vcvn24             0                       (Unspecified)
system.ruby.network.sankey.vcvn8.vcvn25             0                       (Unspecified)
system.ruby.network.sankey.vcvn8.vcvn26             0                       (Unspecified)
system.ruby.network.sankey.vcvn8.vcvn27             0                       (Unspecified)
system.ruby.network.sankey.vcvn8.vcvn28             0                       (Unspecified)
system.ruby.network.sankey.vcvn8.vcvn29             0                       (Unspecified)
system.ruby.network.sankey.vcvn8.vcvn3           2354                       (Unspecified)
system.ruby.network.sankey.vcvn8.vcvn30             0                       (Unspecified)
system.ruby.network.sankey.vcvn8.vcvn31             0                       (Unspecified)
system.ruby.network.sankey.vcvn8.vcvn32             0                       (Unspecified)
system.ruby.network.sankey.vcvn8.vcvn33             0                       (Unspecified)
system.ruby.network.sankey.vcvn8.vcvn34             0                       (Unspecified)
system.ruby.network.sankey.vcvn8.vcvn35             0                       (Unspecified)
system.ruby.network.sankey.vcvn8.vcvn4            130                       (Unspecified)
system.ruby.network.sankey.vcvn8.vcvn5              7                       (Unspecified)
system.ruby.network.sankey.vcvn8.vcvn6              0                       (Unspecified)
system.ruby.network.sankey.vcvn8.vcvn7              0                       (Unspecified)
system.ruby.network.sankey.vcvn8.vcvn8              0                       (Unspecified)
system.ruby.network.sankey.vcvn8.vcvn9              0                       (Unspecified)
system.ruby.network.sankey.vcvn9.vcvn0        1466902                       (Unspecified)
system.ruby.network.sankey.vcvn9.vcvn1         285858                       (Unspecified)
system.ruby.network.sankey.vcvn9.vcvn10            15                       (Unspecified)
system.ruby.network.sankey.vcvn9.vcvn11             4                       (Unspecified)
system.ruby.network.sankey.vcvn9.vcvn12             0                       (Unspecified)
system.ruby.network.sankey.vcvn9.vcvn13             0                       (Unspecified)
system.ruby.network.sankey.vcvn9.vcvn14             0                       (Unspecified)
system.ruby.network.sankey.vcvn9.vcvn15             0                       (Unspecified)
system.ruby.network.sankey.vcvn9.vcvn16             0                       (Unspecified)
system.ruby.network.sankey.vcvn9.vcvn17             0                       (Unspecified)
system.ruby.network.sankey.vcvn9.vcvn18             0                       (Unspecified)
system.ruby.network.sankey.vcvn9.vcvn19             0                       (Unspecified)
system.ruby.network.sankey.vcvn9.vcvn2          32152                       (Unspecified)
system.ruby.network.sankey.vcvn9.vcvn20             0                       (Unspecified)
system.ruby.network.sankey.vcvn9.vcvn21             0                       (Unspecified)
system.ruby.network.sankey.vcvn9.vcvn22             0                       (Unspecified)
system.ruby.network.sankey.vcvn9.vcvn23             0                       (Unspecified)
system.ruby.network.sankey.vcvn9.vcvn24             0                       (Unspecified)
system.ruby.network.sankey.vcvn9.vcvn25             0                       (Unspecified)
system.ruby.network.sankey.vcvn9.vcvn26             0                       (Unspecified)
system.ruby.network.sankey.vcvn9.vcvn27             0                       (Unspecified)
system.ruby.network.sankey.vcvn9.vcvn28             0                       (Unspecified)
system.ruby.network.sankey.vcvn9.vcvn29             0                       (Unspecified)
system.ruby.network.sankey.vcvn9.vcvn3           2375                       (Unspecified)
system.ruby.network.sankey.vcvn9.vcvn30             0                       (Unspecified)
system.ruby.network.sankey.vcvn9.vcvn31             0                       (Unspecified)
system.ruby.network.sankey.vcvn9.vcvn32             0                       (Unspecified)
system.ruby.network.sankey.vcvn9.vcvn33             0                       (Unspecified)
system.ruby.network.sankey.vcvn9.vcvn34             0                       (Unspecified)
system.ruby.network.sankey.vcvn9.vcvn35             0                       (Unspecified)
system.ruby.network.sankey.vcvn9.vcvn4            137                       (Unspecified)
system.ruby.network.sankey.vcvn9.vcvn5              4                       (Unspecified)
system.ruby.network.sankey.vcvn9.vcvn6              0                       (Unspecified)
system.ruby.network.sankey.vcvn9.vcvn7              0                       (Unspecified)
system.ruby.network.sankey.vcvn9.vcvn8              0                       (Unspecified)
system.ruby.network.sankey.vcvn9.vcvn9              0                       (Unspecified)

---------- End Simulation Statistics   ----------
