
---------- Begin Simulation Statistics ----------
simSeconds                                   0.002147                       # Number of seconds simulated (Second)
simTicks                                   2147483750                       # Number of ticks simulated (Tick)
finalTick                                  2147483750                       # Number of ticks from beginning of simulation (restored from checkpoints and never reset) (Tick)
simFreq                                  1000000000000                       # The number of ticks per simulated second ((Tick/Second))
hostSeconds                                  20902.73                       # Real time elapsed on the host (Second)
hostTickRate                                   102737                       # The number of ticks simulated per host second (ticks/s) ((Tick/Second))
hostMemory                                   44884280                       # Number of bytes of host memory used (Byte)
system.clk_domain.clock                           250                       # Clock period in ticks (Tick)
system.cpu0.power_state.pwrStateResidencyTicks::UNDEFINED   2147483750                       # Cumulative time (in ticks) in various power states (Tick)
system.cpu1.power_state.pwrStateResidencyTicks::UNDEFINED   2147483750                       # Cumulative time (in ticks) in various power states (Tick)
system.cpu10.power_state.pwrStateResidencyTicks::UNDEFINED   2147483750                       # Cumulative time (in ticks) in various power states (Tick)
system.cpu11.power_state.pwrStateResidencyTicks::UNDEFINED   2147483750                       # Cumulative time (in ticks) in various power states (Tick)
system.cpu12.power_state.pwrStateResidencyTicks::UNDEFINED   2147483750                       # Cumulative time (in ticks) in various power states (Tick)
system.cpu13.power_state.pwrStateResidencyTicks::UNDEFINED   2147483750                       # Cumulative time (in ticks) in various power states (Tick)
system.cpu14.power_state.pwrStateResidencyTicks::UNDEFINED   2147483750                       # Cumulative time (in ticks) in various power states (Tick)
system.cpu15.power_state.pwrStateResidencyTicks::UNDEFINED   2147483750                       # Cumulative time (in ticks) in various power states (Tick)
system.cpu16.power_state.pwrStateResidencyTicks::UNDEFINED   2147483750                       # Cumulative time (in ticks) in various power states (Tick)
system.cpu17.power_state.pwrStateResidencyTicks::UNDEFINED   2147483750                       # Cumulative time (in ticks) in various power states (Tick)
system.cpu18.power_state.pwrStateResidencyTicks::UNDEFINED   2147483750                       # Cumulative time (in ticks) in various power states (Tick)
system.cpu19.power_state.pwrStateResidencyTicks::UNDEFINED   2147483750                       # Cumulative time (in ticks) in various power states (Tick)
system.cpu2.power_state.pwrStateResidencyTicks::UNDEFINED   2147483750                       # Cumulative time (in ticks) in various power states (Tick)
system.cpu20.power_state.pwrStateResidencyTicks::UNDEFINED   2147483750                       # Cumulative time (in ticks) in various power states (Tick)
system.cpu21.power_state.pwrStateResidencyTicks::UNDEFINED   2147483750                       # Cumulative time (in ticks) in various power states (Tick)
system.cpu22.power_state.pwrStateResidencyTicks::UNDEFINED   2147483750                       # Cumulative time (in ticks) in various power states (Tick)
system.cpu23.power_state.pwrStateResidencyTicks::UNDEFINED   2147483750                       # Cumulative time (in ticks) in various power states (Tick)
system.cpu24.power_state.pwrStateResidencyTicks::UNDEFINED   2147483750                       # Cumulative time (in ticks) in various power states (Tick)
system.cpu25.power_state.pwrStateResidencyTicks::UNDEFINED   2147483750                       # Cumulative time (in ticks) in various power states (Tick)
system.cpu26.power_state.pwrStateResidencyTicks::UNDEFINED   2147483750                       # Cumulative time (in ticks) in various power states (Tick)
system.cpu27.power_state.pwrStateResidencyTicks::UNDEFINED   2147483750                       # Cumulative time (in ticks) in various power states (Tick)
system.cpu28.power_state.pwrStateResidencyTicks::UNDEFINED   2147483750                       # Cumulative time (in ticks) in various power states (Tick)
system.cpu29.power_state.pwrStateResidencyTicks::UNDEFINED   2147483750                       # Cumulative time (in ticks) in various power states (Tick)
system.cpu3.power_state.pwrStateResidencyTicks::UNDEFINED   2147483750                       # Cumulative time (in ticks) in various power states (Tick)
system.cpu30.power_state.pwrStateResidencyTicks::UNDEFINED   2147483750                       # Cumulative time (in ticks) in various power states (Tick)
system.cpu31.power_state.pwrStateResidencyTicks::UNDEFINED   2147483750                       # Cumulative time (in ticks) in various power states (Tick)
system.cpu32.power_state.pwrStateResidencyTicks::UNDEFINED   2147483750                       # Cumulative time (in ticks) in various power states (Tick)
system.cpu33.power_state.pwrStateResidencyTicks::UNDEFINED   2147483750                       # Cumulative time (in ticks) in various power states (Tick)
system.cpu34.power_state.pwrStateResidencyTicks::UNDEFINED   2147483750                       # Cumulative time (in ticks) in various power states (Tick)
system.cpu35.power_state.pwrStateResidencyTicks::UNDEFINED   2147483750                       # Cumulative time (in ticks) in various power states (Tick)
system.cpu36.power_state.pwrStateResidencyTicks::UNDEFINED   2147483750                       # Cumulative time (in ticks) in various power states (Tick)
system.cpu37.power_state.pwrStateResidencyTicks::UNDEFINED   2147483750                       # Cumulative time (in ticks) in various power states (Tick)
system.cpu38.power_state.pwrStateResidencyTicks::UNDEFINED   2147483750                       # Cumulative time (in ticks) in various power states (Tick)
system.cpu39.power_state.pwrStateResidencyTicks::UNDEFINED   2147483750                       # Cumulative time (in ticks) in various power states (Tick)
system.cpu4.power_state.pwrStateResidencyTicks::UNDEFINED   2147483750                       # Cumulative time (in ticks) in various power states (Tick)
system.cpu40.power_state.pwrStateResidencyTicks::UNDEFINED   2147483750                       # Cumulative time (in ticks) in various power states (Tick)
system.cpu41.power_state.pwrStateResidencyTicks::UNDEFINED   2147483750                       # Cumulative time (in ticks) in various power states (Tick)
system.cpu42.power_state.pwrStateResidencyTicks::UNDEFINED   2147483750                       # Cumulative time (in ticks) in various power states (Tick)
system.cpu43.power_state.pwrStateResidencyTicks::UNDEFINED   2147483750                       # Cumulative time (in ticks) in various power states (Tick)
system.cpu44.power_state.pwrStateResidencyTicks::UNDEFINED   2147483750                       # Cumulative time (in ticks) in various power states (Tick)
system.cpu45.power_state.pwrStateResidencyTicks::UNDEFINED   2147483750                       # Cumulative time (in ticks) in various power states (Tick)
system.cpu46.power_state.pwrStateResidencyTicks::UNDEFINED   2147483750                       # Cumulative time (in ticks) in various power states (Tick)
system.cpu47.power_state.pwrStateResidencyTicks::UNDEFINED   2147483750                       # Cumulative time (in ticks) in various power states (Tick)
system.cpu48.power_state.pwrStateResidencyTicks::UNDEFINED   2147483750                       # Cumulative time (in ticks) in various power states (Tick)
system.cpu49.power_state.pwrStateResidencyTicks::UNDEFINED   2147483750                       # Cumulative time (in ticks) in various power states (Tick)
system.cpu5.power_state.pwrStateResidencyTicks::UNDEFINED   2147483750                       # Cumulative time (in ticks) in various power states (Tick)
system.cpu50.power_state.pwrStateResidencyTicks::UNDEFINED   2147483750                       # Cumulative time (in ticks) in various power states (Tick)
system.cpu51.power_state.pwrStateResidencyTicks::UNDEFINED   2147483750                       # Cumulative time (in ticks) in various power states (Tick)
system.cpu52.power_state.pwrStateResidencyTicks::UNDEFINED   2147483750                       # Cumulative time (in ticks) in various power states (Tick)
system.cpu53.power_state.pwrStateResidencyTicks::UNDEFINED   2147483750                       # Cumulative time (in ticks) in various power states (Tick)
system.cpu54.power_state.pwrStateResidencyTicks::UNDEFINED   2147483750                       # Cumulative time (in ticks) in various power states (Tick)
system.cpu55.power_state.pwrStateResidencyTicks::UNDEFINED   2147483750                       # Cumulative time (in ticks) in various power states (Tick)
system.cpu56.power_state.pwrStateResidencyTicks::UNDEFINED   2147483750                       # Cumulative time (in ticks) in various power states (Tick)
system.cpu57.power_state.pwrStateResidencyTicks::UNDEFINED   2147483750                       # Cumulative time (in ticks) in various power states (Tick)
system.cpu58.power_state.pwrStateResidencyTicks::UNDEFINED   2147483750                       # Cumulative time (in ticks) in various power states (Tick)
system.cpu59.power_state.pwrStateResidencyTicks::UNDEFINED   2147483750                       # Cumulative time (in ticks) in various power states (Tick)
system.cpu6.power_state.pwrStateResidencyTicks::UNDEFINED   2147483750                       # Cumulative time (in ticks) in various power states (Tick)
system.cpu60.power_state.pwrStateResidencyTicks::UNDEFINED   2147483750                       # Cumulative time (in ticks) in various power states (Tick)
system.cpu61.power_state.pwrStateResidencyTicks::UNDEFINED   2147483750                       # Cumulative time (in ticks) in various power states (Tick)
system.cpu62.power_state.pwrStateResidencyTicks::UNDEFINED   2147483750                       # Cumulative time (in ticks) in various power states (Tick)
system.cpu63.power_state.pwrStateResidencyTicks::UNDEFINED   2147483750                       # Cumulative time (in ticks) in various power states (Tick)
system.cpu7.power_state.pwrStateResidencyTicks::UNDEFINED   2147483750                       # Cumulative time (in ticks) in various power states (Tick)
system.cpu8.power_state.pwrStateResidencyTicks::UNDEFINED   2147483750                       # Cumulative time (in ticks) in various power states (Tick)
system.cpu9.power_state.pwrStateResidencyTicks::UNDEFINED   2147483750                       # Cumulative time (in ticks) in various power states (Tick)
system.mem_ctrls0.power_state.pwrStateResidencyTicks::UNDEFINED   2147483750                       # Cumulative time (in ticks) in various power states (Tick)
system.mem_ctrls1.power_state.pwrStateResidencyTicks::UNDEFINED   2147483750                       # Cumulative time (in ticks) in various power states (Tick)
system.mem_ctrls10.power_state.pwrStateResidencyTicks::UNDEFINED   2147483750                       # Cumulative time (in ticks) in various power states (Tick)
system.mem_ctrls11.power_state.pwrStateResidencyTicks::UNDEFINED   2147483750                       # Cumulative time (in ticks) in various power states (Tick)
system.mem_ctrls12.power_state.pwrStateResidencyTicks::UNDEFINED   2147483750                       # Cumulative time (in ticks) in various power states (Tick)
system.mem_ctrls13.power_state.pwrStateResidencyTicks::UNDEFINED   2147483750                       # Cumulative time (in ticks) in various power states (Tick)
system.mem_ctrls14.power_state.pwrStateResidencyTicks::UNDEFINED   2147483750                       # Cumulative time (in ticks) in various power states (Tick)
system.mem_ctrls15.power_state.pwrStateResidencyTicks::UNDEFINED   2147483750                       # Cumulative time (in ticks) in various power states (Tick)
system.mem_ctrls16.power_state.pwrStateResidencyTicks::UNDEFINED   2147483750                       # Cumulative time (in ticks) in various power states (Tick)
system.mem_ctrls17.power_state.pwrStateResidencyTicks::UNDEFINED   2147483750                       # Cumulative time (in ticks) in various power states (Tick)
system.mem_ctrls18.power_state.pwrStateResidencyTicks::UNDEFINED   2147483750                       # Cumulative time (in ticks) in various power states (Tick)
system.mem_ctrls19.power_state.pwrStateResidencyTicks::UNDEFINED   2147483750                       # Cumulative time (in ticks) in various power states (Tick)
system.mem_ctrls2.power_state.pwrStateResidencyTicks::UNDEFINED   2147483750                       # Cumulative time (in ticks) in various power states (Tick)
system.mem_ctrls20.power_state.pwrStateResidencyTicks::UNDEFINED   2147483750                       # Cumulative time (in ticks) in various power states (Tick)
system.mem_ctrls21.power_state.pwrStateResidencyTicks::UNDEFINED   2147483750                       # Cumulative time (in ticks) in various power states (Tick)
system.mem_ctrls22.power_state.pwrStateResidencyTicks::UNDEFINED   2147483750                       # Cumulative time (in ticks) in various power states (Tick)
system.mem_ctrls23.power_state.pwrStateResidencyTicks::UNDEFINED   2147483750                       # Cumulative time (in ticks) in various power states (Tick)
system.mem_ctrls24.power_state.pwrStateResidencyTicks::UNDEFINED   2147483750                       # Cumulative time (in ticks) in various power states (Tick)
system.mem_ctrls25.power_state.pwrStateResidencyTicks::UNDEFINED   2147483750                       # Cumulative time (in ticks) in various power states (Tick)
system.mem_ctrls26.power_state.pwrStateResidencyTicks::UNDEFINED   2147483750                       # Cumulative time (in ticks) in various power states (Tick)
system.mem_ctrls27.power_state.pwrStateResidencyTicks::UNDEFINED   2147483750                       # Cumulative time (in ticks) in various power states (Tick)
system.mem_ctrls28.power_state.pwrStateResidencyTicks::UNDEFINED   2147483750                       # Cumulative time (in ticks) in various power states (Tick)
system.mem_ctrls29.power_state.pwrStateResidencyTicks::UNDEFINED   2147483750                       # Cumulative time (in ticks) in various power states (Tick)
system.mem_ctrls3.power_state.pwrStateResidencyTicks::UNDEFINED   2147483750                       # Cumulative time (in ticks) in various power states (Tick)
system.mem_ctrls30.power_state.pwrStateResidencyTicks::UNDEFINED   2147483750                       # Cumulative time (in ticks) in various power states (Tick)
system.mem_ctrls31.power_state.pwrStateResidencyTicks::UNDEFINED   2147483750                       # Cumulative time (in ticks) in various power states (Tick)
system.mem_ctrls32.power_state.pwrStateResidencyTicks::UNDEFINED   2147483750                       # Cumulative time (in ticks) in various power states (Tick)
system.mem_ctrls33.power_state.pwrStateResidencyTicks::UNDEFINED   2147483750                       # Cumulative time (in ticks) in various power states (Tick)
system.mem_ctrls34.power_state.pwrStateResidencyTicks::UNDEFINED   2147483750                       # Cumulative time (in ticks) in various power states (Tick)
system.mem_ctrls35.power_state.pwrStateResidencyTicks::UNDEFINED   2147483750                       # Cumulative time (in ticks) in various power states (Tick)
system.mem_ctrls36.power_state.pwrStateResidencyTicks::UNDEFINED   2147483750                       # Cumulative time (in ticks) in various power states (Tick)
system.mem_ctrls37.power_state.pwrStateResidencyTicks::UNDEFINED   2147483750                       # Cumulative time (in ticks) in various power states (Tick)
system.mem_ctrls38.power_state.pwrStateResidencyTicks::UNDEFINED   2147483750                       # Cumulative time (in ticks) in various power states (Tick)
system.mem_ctrls39.power_state.pwrStateResidencyTicks::UNDEFINED   2147483750                       # Cumulative time (in ticks) in various power states (Tick)
system.mem_ctrls4.power_state.pwrStateResidencyTicks::UNDEFINED   2147483750                       # Cumulative time (in ticks) in various power states (Tick)
system.mem_ctrls40.power_state.pwrStateResidencyTicks::UNDEFINED   2147483750                       # Cumulative time (in ticks) in various power states (Tick)
system.mem_ctrls41.power_state.pwrStateResidencyTicks::UNDEFINED   2147483750                       # Cumulative time (in ticks) in various power states (Tick)
system.mem_ctrls42.power_state.pwrStateResidencyTicks::UNDEFINED   2147483750                       # Cumulative time (in ticks) in various power states (Tick)
system.mem_ctrls43.power_state.pwrStateResidencyTicks::UNDEFINED   2147483750                       # Cumulative time (in ticks) in various power states (Tick)
system.mem_ctrls44.power_state.pwrStateResidencyTicks::UNDEFINED   2147483750                       # Cumulative time (in ticks) in various power states (Tick)
system.mem_ctrls45.power_state.pwrStateResidencyTicks::UNDEFINED   2147483750                       # Cumulative time (in ticks) in various power states (Tick)
system.mem_ctrls46.power_state.pwrStateResidencyTicks::UNDEFINED   2147483750                       # Cumulative time (in ticks) in various power states (Tick)
system.mem_ctrls47.power_state.pwrStateResidencyTicks::UNDEFINED   2147483750                       # Cumulative time (in ticks) in various power states (Tick)
system.mem_ctrls48.power_state.pwrStateResidencyTicks::UNDEFINED   2147483750                       # Cumulative time (in ticks) in various power states (Tick)
system.mem_ctrls49.power_state.pwrStateResidencyTicks::UNDEFINED   2147483750                       # Cumulative time (in ticks) in various power states (Tick)
system.mem_ctrls5.power_state.pwrStateResidencyTicks::UNDEFINED   2147483750                       # Cumulative time (in ticks) in various power states (Tick)
system.mem_ctrls50.power_state.pwrStateResidencyTicks::UNDEFINED   2147483750                       # Cumulative time (in ticks) in various power states (Tick)
system.mem_ctrls51.power_state.pwrStateResidencyTicks::UNDEFINED   2147483750                       # Cumulative time (in ticks) in various power states (Tick)
system.mem_ctrls52.power_state.pwrStateResidencyTicks::UNDEFINED   2147483750                       # Cumulative time (in ticks) in various power states (Tick)
system.mem_ctrls53.power_state.pwrStateResidencyTicks::UNDEFINED   2147483750                       # Cumulative time (in ticks) in various power states (Tick)
system.mem_ctrls54.power_state.pwrStateResidencyTicks::UNDEFINED   2147483750                       # Cumulative time (in ticks) in various power states (Tick)
system.mem_ctrls55.power_state.pwrStateResidencyTicks::UNDEFINED   2147483750                       # Cumulative time (in ticks) in various power states (Tick)
system.mem_ctrls56.power_state.pwrStateResidencyTicks::UNDEFINED   2147483750                       # Cumulative time (in ticks) in various power states (Tick)
system.mem_ctrls57.power_state.pwrStateResidencyTicks::UNDEFINED   2147483750                       # Cumulative time (in ticks) in various power states (Tick)
system.mem_ctrls58.power_state.pwrStateResidencyTicks::UNDEFINED   2147483750                       # Cumulative time (in ticks) in various power states (Tick)
system.mem_ctrls59.power_state.pwrStateResidencyTicks::UNDEFINED   2147483750                       # Cumulative time (in ticks) in various power states (Tick)
system.mem_ctrls6.power_state.pwrStateResidencyTicks::UNDEFINED   2147483750                       # Cumulative time (in ticks) in various power states (Tick)
system.mem_ctrls60.power_state.pwrStateResidencyTicks::UNDEFINED   2147483750                       # Cumulative time (in ticks) in various power states (Tick)
system.mem_ctrls61.power_state.pwrStateResidencyTicks::UNDEFINED   2147483750                       # Cumulative time (in ticks) in various power states (Tick)
system.mem_ctrls62.power_state.pwrStateResidencyTicks::UNDEFINED   2147483750                       # Cumulative time (in ticks) in various power states (Tick)
system.mem_ctrls63.power_state.pwrStateResidencyTicks::UNDEFINED   2147483750                       # Cumulative time (in ticks) in various power states (Tick)
system.mem_ctrls7.power_state.pwrStateResidencyTicks::UNDEFINED   2147483750                       # Cumulative time (in ticks) in various power states (Tick)
system.mem_ctrls8.power_state.pwrStateResidencyTicks::UNDEFINED   2147483750                       # Cumulative time (in ticks) in various power states (Tick)
system.mem_ctrls9.power_state.pwrStateResidencyTicks::UNDEFINED   2147483750                       # Cumulative time (in ticks) in various power states (Tick)
system.ruby.m_outstandReqHistSeqr::bucket_size            1                       (Unspecified)
system.ruby.m_outstandReqHistSeqr::max_bucket            9                       (Unspecified)
system.ruby.m_outstandReqHistSeqr::samples     98867210                       (Unspecified)
system.ruby.m_outstandReqHistSeqr::mean             1                       (Unspecified)
system.ruby.m_outstandReqHistSeqr::gmean            1                       (Unspecified)
system.ruby.m_outstandReqHistSeqr        |           0      0.00%      0.00% |    98867210    100.00%    100.00% |           0      0.00%    100.00% |           0      0.00%    100.00% |           0      0.00%    100.00% |           0      0.00%    100.00% |           0      0.00%    100.00% |           0      0.00%    100.00% |           0      0.00%    100.00% |           0      0.00%    100.00% (Unspecified)
system.ruby.m_outstandReqHistSeqr::total     98867210                       (Unspecified)
system.ruby.m_latencyHistSeqr::bucket_size            1                       (Unspecified)
system.ruby.m_latencyHistSeqr::max_bucket            9                       (Unspecified)
system.ruby.m_latencyHistSeqr::samples       98867196                       (Unspecified)
system.ruby.m_latencyHistSeqr::mean                 1                       (Unspecified)
system.ruby.m_latencyHistSeqr::gmean                1                       (Unspecified)
system.ruby.m_latencyHistSeqr            |           0      0.00%      0.00% |    98867196    100.00%    100.00% |           0      0.00%    100.00% |           0      0.00%    100.00% |           0      0.00%    100.00% |           0      0.00%    100.00% |           0      0.00%    100.00% |           0      0.00%    100.00% |           0      0.00%    100.00% |           0      0.00%    100.00% (Unspecified)
system.ruby.m_latencyHistSeqr::total         98867196                       (Unspecified)
system.ruby.m_hitLatencyHistSeqr::bucket_size            1                       (Unspecified)
system.ruby.m_hitLatencyHistSeqr::max_bucket            9                       (Unspecified)
system.ruby.m_hitLatencyHistSeqr::samples     98867196                       (Unspecified)
system.ruby.m_hitLatencyHistSeqr::mean              1                       (Unspecified)
system.ruby.m_hitLatencyHistSeqr::gmean             1                       (Unspecified)
system.ruby.m_hitLatencyHistSeqr         |           0      0.00%      0.00% |    98867196    100.00%    100.00% |           0      0.00%    100.00% |           0      0.00%    100.00% |           0      0.00%    100.00% |           0      0.00%    100.00% |           0      0.00%    100.00% |           0      0.00%    100.00% |           0      0.00%    100.00% |           0      0.00%    100.00% (Unspecified)
system.ruby.m_hitLatencyHistSeqr::total      98867196                       (Unspecified)
system.ruby.Directory_Controller.Receive_Request |      513957      1.56%      1.56% |      514818      1.56%      3.12% |      514763      1.56%      4.68% |      515860      1.57%      6.25% |      514627      1.56%      7.81% |      515101      1.56%      9.37% |      512722      1.56%     10.93% |      515389      1.56%     12.49% |      515039      1.56%     14.06% |      514760      1.56%     15.62% |      515355      1.56%     17.18% |      515888      1.57%     18.75% |      514912      1.56%     20.31% |      514161      1.56%     21.87% |      514809      1.56%     23.43% |      515258      1.56%     25.00% |      514067      1.56%     26.56% |      516163      1.57%     28.12% |      515636      1.56%     29.69% |      514515      1.56%     31.25% |      515247      1.56%     32.81% |      514106      1.56%     34.37% |      515149      1.56%     35.94% |      514456      1.56%     37.50% |      514178      1.56%     39.06% |      513529      1.56%     40.62% |      515508      1.56%     42.18% |      513536      1.56%     43.74% |      516011      1.57%     45.31% |      513724      1.56%     46.86% |      516533      1.57%     48.43% |      513795      1.56%     49.99% |      514753      1.56%     51.55% |      515234      1.56%     53.12% |      515832      1.57%     54.68% |      515769      1.57%     56.25% |      515014      1.56%     57.81% |      515586      1.56%     59.37% |      513609      1.56%     60.93% |      515214      1.56%     62.50% |      514456      1.56%     64.06% |      514185      1.56%     65.62% |      515760      1.57%     67.18% |      516009      1.57%     68.75% |      515365      1.56%     70.31% |      515240      1.56%     71.88% |      514330      1.56%     73.44% |      515015      1.56%     75.00% |      514440      1.56%     76.56% |      515572      1.56%     78.13% |      515943      1.57%     79.69% |      514586      1.56%     81.25% |      515020      1.56%     82.82% |      514708      1.56%     84.38% |      514477      1.56%     85.94% |      514283      1.56%     87.50% |      515044      1.56%     89.06% |      513880      1.56%     90.62% |      515037      1.56%     92.19% |      514525      1.56%     93.75% |      515130      1.56%     95.31% |      515017      1.56%     96.87% |      515442      1.56%     98.44% |      515114      1.56%    100.00% (Unspecified)
system.ruby.Directory_Controller.Receive_Request::total     32953161                       (Unspecified)
system.ruby.Directory_Controller.Receive_Forward |      515755      1.56%      1.56% |      514758      1.56%      3.13% |      515422      1.56%      4.69% |      515074      1.56%      6.25% |      514868      1.56%      7.82% |      513677      1.56%      9.37% |      514368      1.56%     10.94% |      514678      1.56%     12.50% |      516194      1.57%     14.06% |      514491      1.56%     15.62% |      515724      1.56%     17.19% |      514186      1.56%     18.75% |      513492      1.56%     20.31% |      516701      1.57%     21.88% |      514412      1.56%     23.44% |      515412      1.56%     25.00% |      515494      1.56%     26.56% |      514655      1.56%     28.13% |      514249      1.56%     29.69% |      515171      1.56%     31.25% |      515524      1.56%     32.81% |      515319      1.56%     34.38% |      513660      1.56%     35.94% |      514719      1.56%     37.50% |      515019      1.56%     39.06% |      515226      1.56%     40.62% |      514351      1.56%     42.18% |      514064      1.56%     43.74% |      514427      1.56%     45.31% |      514521      1.56%     46.87% |      514959      1.56%     48.43% |      515379      1.56%     49.99% |      515166      1.56%     51.56% |      514655      1.56%     53.12% |      515622      1.56%     54.68% |      513510      1.56%     56.24% |      514197      1.56%     57.80% |      516145      1.57%     59.37% |      516038      1.57%     60.93% |      514673      1.56%     62.49% |      516018      1.57%     64.06% |      515086      1.56%     65.62% |      515596      1.56%     67.19% |      514659      1.56%     68.75% |      514086      1.56%     70.31% |      515647      1.56%     71.87% |      514325      1.56%     73.43% |      514090      1.56%     74.99% |      514990      1.56%     76.56% |      515335      1.56%     78.12% |      514668      1.56%     79.68% |      515989      1.57%     81.25% |      514368      1.56%     82.81% |      514989      1.56%     84.37% |      514577      1.56%     85.93% |      514441      1.56%     87.49% |      515074      1.56%     89.06% |      513820      1.56%     90.62% |      516552      1.57%     92.18% |      514666      1.56%     93.74% |      515433      1.56%     95.31% |      516642      1.57%     96.88% |      515485      1.56%     98.44% |      514161      1.56%    100.00% (Unspecified)
system.ruby.Directory_Controller.Receive_Forward::total     32956652                       (Unspecified)
system.ruby.Directory_Controller.Receive_Response |      137010      1.56%      1.56% |      136916      1.56%      3.13% |      136227      1.55%      4.68% |      136900      1.56%      6.24% |      137187      1.57%      7.81% |      136489      1.56%      9.37% |      136145      1.55%     10.92% |      136467      1.56%     12.48% |      136615      1.56%     14.04% |      137109      1.56%     15.60% |      136842      1.56%     17.16% |      137494      1.57%     18.73% |      137039      1.56%     20.30% |      136947      1.56%     21.86% |      136720      1.56%     23.42% |      136972      1.56%     24.98% |      137051      1.56%     26.55% |      136704      1.56%     28.11% |      136991      1.56%     29.67% |      136406      1.56%     31.23% |      136735      1.56%     32.79% |      136740      1.56%     34.35% |      136647      1.56%     35.91% |      136836      1.56%     37.47% |      136779      1.56%     39.03% |      136853      1.56%     40.59% |      137647      1.57%     42.16% |      136789      1.56%     43.72% |      136552      1.56%     45.28% |      137344      1.57%     46.85% |      136655      1.56%     48.41% |      136527      1.56%     49.97% |      137645      1.57%     51.54% |      137123      1.56%     53.10% |      136898      1.56%     54.67% |      137250      1.57%     56.23% |      137092      1.56%     57.80% |      136816      1.56%     59.36% |      136482      1.56%     60.92% |      136747      1.56%     62.48% |      137154      1.57%     64.04% |      136926      1.56%     65.60% |      136725      1.56%     67.17% |      136952      1.56%     68.73% |      136904      1.56%     70.29% |      137481      1.57%     71.86% |      136879      1.56%     73.42% |      136716      1.56%     74.98% |      137111      1.56%     76.55% |      137059      1.56%     78.11% |      136468      1.56%     79.67% |      136848      1.56%     81.23% |      136874      1.56%     82.79% |      137039      1.56%     84.36% |      137274      1.57%     85.92% |      137227      1.57%     87.49% |      136933      1.56%     89.05% |      137518      1.57%     90.62% |      137079      1.56%     92.19% |      137094      1.56%     93.75% |      136748      1.56%     95.31% |      136908      1.56%     96.87% |      136690      1.56%     98.43% |      137262      1.57%    100.00% (Unspecified)
system.ruby.Directory_Controller.Receive_Response::total      8762257                       (Unspecified)
system.ruby.Directory_Controller.I.Receive_Request |      513957      1.56%      1.56% |      514818      1.56%      3.12% |      514763      1.56%      4.68% |      515860      1.57%      6.25% |      514627      1.56%      7.81% |      515101      1.56%      9.37% |      512722      1.56%     10.93% |      515389      1.56%     12.49% |      515039      1.56%     14.06% |      514760      1.56%     15.62% |      515355      1.56%     17.18% |      515888      1.57%     18.75% |      514912      1.56%     20.31% |      514161      1.56%     21.87% |      514809      1.56%     23.43% |      515258      1.56%     25.00% |      514067      1.56%     26.56% |      516163      1.57%     28.12% |      515636      1.56%     29.69% |      514515      1.56%     31.25% |      515247      1.56%     32.81% |      514106      1.56%     34.37% |      515149      1.56%     35.94% |      514456      1.56%     37.50% |      514178      1.56%     39.06% |      513529      1.56%     40.62% |      515508      1.56%     42.18% |      513536      1.56%     43.74% |      516011      1.57%     45.31% |      513724      1.56%     46.86% |      516533      1.57%     48.43% |      513795      1.56%     49.99% |      514753      1.56%     51.55% |      515234      1.56%     53.12% |      515832      1.57%     54.68% |      515769      1.57%     56.25% |      515014      1.56%     57.81% |      515586      1.56%     59.37% |      513609      1.56%     60.93% |      515214      1.56%     62.50% |      514456      1.56%     64.06% |      514185      1.56%     65.62% |      515760      1.57%     67.18% |      516009      1.57%     68.75% |      515365      1.56%     70.31% |      515240      1.56%     71.88% |      514330      1.56%     73.44% |      515015      1.56%     75.00% |      514440      1.56%     76.56% |      515572      1.56%     78.13% |      515943      1.57%     79.69% |      514586      1.56%     81.25% |      515020      1.56%     82.82% |      514708      1.56%     84.38% |      514477      1.56%     85.94% |      514283      1.56%     87.50% |      515044      1.56%     89.06% |      513880      1.56%     90.62% |      515037      1.56%     92.19% |      514525      1.56%     93.75% |      515130      1.56%     95.31% |      515017      1.56%     96.87% |      515442      1.56%     98.44% |      515114      1.56%    100.00% (Unspecified)
system.ruby.Directory_Controller.I.Receive_Request::total     32953161                       (Unspecified)
system.ruby.Directory_Controller.I.Receive_Forward |      515755      1.56%      1.56% |      514758      1.56%      3.13% |      515422      1.56%      4.69% |      515074      1.56%      6.25% |      514868      1.56%      7.82% |      513677      1.56%      9.37% |      514368      1.56%     10.94% |      514678      1.56%     12.50% |      516194      1.57%     14.06% |      514491      1.56%     15.62% |      515724      1.56%     17.19% |      514186      1.56%     18.75% |      513492      1.56%     20.31% |      516701      1.57%     21.88% |      514412      1.56%     23.44% |      515412      1.56%     25.00% |      515494      1.56%     26.56% |      514655      1.56%     28.13% |      514249      1.56%     29.69% |      515171      1.56%     31.25% |      515524      1.56%     32.81% |      515319      1.56%     34.38% |      513660      1.56%     35.94% |      514719      1.56%     37.50% |      515019      1.56%     39.06% |      515226      1.56%     40.62% |      514351      1.56%     42.18% |      514064      1.56%     43.74% |      514427      1.56%     45.31% |      514521      1.56%     46.87% |      514959      1.56%     48.43% |      515379      1.56%     49.99% |      515166      1.56%     51.56% |      514655      1.56%     53.12% |      515622      1.56%     54.68% |      513510      1.56%     56.24% |      514197      1.56%     57.80% |      516145      1.57%     59.37% |      516038      1.57%     60.93% |      514673      1.56%     62.49% |      516018      1.57%     64.06% |      515086      1.56%     65.62% |      515596      1.56%     67.19% |      514659      1.56%     68.75% |      514086      1.56%     70.31% |      515647      1.56%     71.87% |      514325      1.56%     73.43% |      514090      1.56%     74.99% |      514990      1.56%     76.56% |      515335      1.56%     78.12% |      514668      1.56%     79.68% |      515989      1.57%     81.25% |      514368      1.56%     82.81% |      514989      1.56%     84.37% |      514577      1.56%     85.93% |      514441      1.56%     87.49% |      515074      1.56%     89.06% |      513820      1.56%     90.62% |      516552      1.57%     92.18% |      514666      1.56%     93.74% |      515433      1.56%     95.31% |      516642      1.57%     96.88% |      515485      1.56%     98.44% |      514161      1.56%    100.00% (Unspecified)
system.ruby.Directory_Controller.I.Receive_Forward::total     32956652                       (Unspecified)
system.ruby.Directory_Controller.I.Receive_Response |      137010      1.56%      1.56% |      136916      1.56%      3.13% |      136227      1.55%      4.68% |      136900      1.56%      6.24% |      137187      1.57%      7.81% |      136489      1.56%      9.37% |      136145      1.55%     10.92% |      136467      1.56%     12.48% |      136615      1.56%     14.04% |      137109      1.56%     15.60% |      136842      1.56%     17.16% |      137494      1.57%     18.73% |      137039      1.56%     20.30% |      136947      1.56%     21.86% |      136720      1.56%     23.42% |      136972      1.56%     24.98% |      137051      1.56%     26.55% |      136704      1.56%     28.11% |      136991      1.56%     29.67% |      136406      1.56%     31.23% |      136735      1.56%     32.79% |      136740      1.56%     34.35% |      136647      1.56%     35.91% |      136836      1.56%     37.47% |      136779      1.56%     39.03% |      136853      1.56%     40.59% |      137647      1.57%     42.16% |      136789      1.56%     43.72% |      136552      1.56%     45.28% |      137344      1.57%     46.85% |      136655      1.56%     48.41% |      136527      1.56%     49.97% |      137645      1.57%     51.54% |      137123      1.56%     53.10% |      136898      1.56%     54.67% |      137250      1.57%     56.23% |      137092      1.56%     57.80% |      136816      1.56%     59.36% |      136482      1.56%     60.92% |      136747      1.56%     62.48% |      137154      1.57%     64.04% |      136926      1.56%     65.60% |      136725      1.56%     67.17% |      136952      1.56%     68.73% |      136904      1.56%     70.29% |      137481      1.57%     71.86% |      136879      1.56%     73.42% |      136716      1.56%     74.98% |      137111      1.56%     76.55% |      137059      1.56%     78.11% |      136468      1.56%     79.67% |      136848      1.56%     81.23% |      136874      1.56%     82.79% |      137039      1.56%     84.36% |      137274      1.57%     85.92% |      137227      1.57%     87.49% |      136933      1.56%     89.05% |      137518      1.57%     90.62% |      137079      1.56%     92.19% |      137094      1.56%     93.75% |      136748      1.56%     95.31% |      136908      1.56%     96.87% |      136690      1.56%     98.43% |      137262      1.57%    100.00% (Unspecified)
system.ruby.Directory_Controller.I.Receive_Response::total      8762257                       (Unspecified)
system.ruby.L1Cache_Controller.Request   |      515029      1.56%      1.56% |      514469      1.56%      3.12% |      514997      1.56%      4.69% |      513855      1.56%      6.25% |      515686      1.56%      7.81% |      515841      1.57%      9.38% |      514995      1.56%     10.94% |      514425      1.56%     12.50% |      514467      1.56%     14.06% |      514419      1.56%     15.62% |      514988      1.56%     17.19% |      514767      1.56%     18.75% |      515423      1.56%     20.31% |      515436      1.56%     21.88% |      515044      1.56%     23.44% |      515171      1.56%     25.00% |      515297      1.56%     26.57% |      514395      1.56%     28.13% |      515271      1.56%     29.69% |      515570      1.56%     31.25% |      514612      1.56%     32.82% |      513778      1.56%     34.38% |      513539      1.56%     35.93% |      513371      1.56%     37.49% |      513767      1.56%     39.05% |      515754      1.57%     40.62% |      513154      1.56%     42.17% |      515457      1.56%     43.74% |      514984      1.56%     45.30% |      514780      1.56%     46.86% |      516074      1.57%     48.43% |      515197      1.56%     49.99% |      514803      1.56%     51.55% |      515041      1.56%     53.12% |      516141      1.57%     54.68% |      514604      1.56%     56.24% |      513831      1.56%     57.80% |      513208      1.56%     59.36% |      515386      1.56%     60.92% |      514049      1.56%     62.48% |      515775      1.57%     64.05% |      515290      1.56%     65.61% |      514515      1.56%     67.17% |      515562      1.56%     68.74% |      514957      1.56%     70.30% |      514874      1.56%     71.86% |      514296      1.56%     73.42% |      514705      1.56%     74.99% |      514815      1.56%     76.55% |      513918      1.56%     78.11% |      515669      1.56%     79.67% |      515912      1.57%     81.24% |      515326      1.56%     82.80% |      516458      1.57%     84.37% |      514604      1.56%     85.93% |      514215      1.56%     87.49% |      515427      1.56%     89.06% |      515305      1.56%     90.62% |      514094      1.56%     92.18% |      516372      1.57%     93.75% |      516096      1.57%     95.31% |      514745      1.56%     96.87% |      515231      1.56%     98.44% |      514700      1.56%    100.00% (Unspecified)
system.ruby.L1Cache_Controller.Request::total     32953936                       (Unspecified)
system.ruby.L1Cache_Controller.Forward   |      514199      1.56%      1.56% |      514655      1.56%      3.12% |      514584      1.56%      4.68% |      515749      1.56%      6.25% |      515257      1.56%      7.81% |      514650      1.56%      9.37% |      514873      1.56%     10.94% |      516324      1.57%     12.50% |      515215      1.56%     14.07% |      514530      1.56%     15.63% |      515028      1.56%     17.19% |      514950      1.56%     18.75% |      515245      1.56%     20.31% |      515148      1.56%     21.88% |      514728      1.56%     23.44% |      514621      1.56%     25.00% |      515758      1.56%     26.57% |      514473      1.56%     28.13% |      513934      1.56%     29.69% |      515125      1.56%     31.25% |      514587      1.56%     32.81% |      514573      1.56%     34.37% |      515417      1.56%     35.94% |      516273      1.57%     37.50% |      515289      1.56%     39.07% |      515162      1.56%     40.63% |      516019      1.57%     42.19% |      514664      1.56%     43.76% |      514584      1.56%     45.32% |      514957      1.56%     46.88% |      514695      1.56%     48.44% |      515702      1.56%     50.01% |      514634      1.56%     51.57% |      516263      1.57%     53.13% |      515268      1.56%     54.70% |      514034      1.56%     56.26% |      515040      1.56%     57.82% |      515703      1.56%     59.39% |      515186      1.56%     60.95% |      514966      1.56%     62.51% |      515544      1.56%     64.08% |      515642      1.56%     65.64% |      514579      1.56%     67.20% |      514694      1.56%     68.76% |      514138      1.56%     70.32% |      515756      1.56%     71.89% |      515647      1.56%     73.45% |      514308      1.56%     75.01% |      514987      1.56%     76.58% |      516250      1.57%     78.14% |      515651      1.56%     79.71% |      515230      1.56%     81.27% |      513710      1.56%     82.83% |      514921      1.56%     84.39% |      513687      1.56%     85.95% |      513643      1.56%     87.51% |      513944      1.56%     89.07% |      514189      1.56%     90.63% |      514442      1.56%     92.19% |      514244      1.56%     93.75% |      515483      1.56%     95.31% |      515262      1.56%     96.88% |      514938      1.56%     98.44% |      514476      1.56%    100.00% (Unspecified)
system.ruby.L1Cache_Controller.Forward::total     32957427                       (Unspecified)
system.ruby.L1Cache_Controller.Response  |      516247      1.57%      1.57% |      514454      1.56%      3.13% |      514458      1.56%      4.69% |      515634      1.56%      6.25% |      514254      1.56%      7.81% |      515192      1.56%      9.38% |      513981      1.56%     10.94% |      515011      1.56%     12.50% |      514534      1.56%     14.06% |      514256      1.56%     15.62% |      514566      1.56%     17.18% |      512194      1.55%     18.74% |      515469      1.56%     20.30% |      513851      1.56%     21.86% |      515017      1.56%     23.42% |      514608      1.56%     24.98% |      514387      1.56%     26.54% |      513626      1.56%     28.10% |      516194      1.57%     29.67% |      515388      1.56%     31.23% |      514143      1.56%     32.79% |      516100      1.57%     34.36% |      516187      1.57%     35.93% |      515290      1.56%     37.49% |      515432      1.56%     39.05% |      515034      1.56%     40.62% |      515773      1.57%     42.18% |      515060      1.56%     43.74% |      514489      1.56%     45.31% |      516734      1.57%     46.87% |      514733      1.56%     48.44% |      516655      1.57%     50.00% |      514427      1.56%     51.56% |      515184      1.56%     53.13% |      514796      1.56%     54.69% |      515487      1.56%     56.25% |      514219      1.56%     57.81% |      515419      1.56%     59.38% |      514155      1.56%     60.94% |      515746      1.56%     62.50% |      514975      1.56%     64.07% |      515505      1.56%     65.63% |      515321      1.56%     67.19% |      514506      1.56%     68.75% |      515128      1.56%     70.32% |      513632      1.56%     71.88% |      515136      1.56%     73.44% |      515745      1.56%     75.00% |      515215      1.56%     76.57% |      514737      1.56%     78.13% |      514919      1.56%     79.69% |      515864      1.57%     81.26% |      513783      1.56%     82.82% |      514464      1.56%     84.38% |      515039      1.56%     85.94% |      514889      1.56%     87.50% |      514783      1.56%     89.06% |      514211      1.56%     90.63% |      516196      1.57%     92.19% |      515788      1.57%     93.76% |      514430      1.56%     95.32% |      513809      1.56%     96.88% |      514105      1.56%     98.44% |      515269      1.56%    100.00% (Unspecified)
system.ruby.L1Cache_Controller.Response::total     32955833                       (Unspecified)
system.ruby.L1Cache_Controller.I.Request |      515029      1.56%      1.56% |      514469      1.56%      3.12% |      514997      1.56%      4.69% |      513855      1.56%      6.25% |      515686      1.56%      7.81% |      515841      1.57%      9.38% |      514995      1.56%     10.94% |      514425      1.56%     12.50% |      514467      1.56%     14.06% |      514419      1.56%     15.62% |      514988      1.56%     17.19% |      514767      1.56%     18.75% |      515423      1.56%     20.31% |      515436      1.56%     21.88% |      515044      1.56%     23.44% |      515171      1.56%     25.00% |      515297      1.56%     26.57% |      514395      1.56%     28.13% |      515271      1.56%     29.69% |      515570      1.56%     31.25% |      514612      1.56%     32.82% |      513778      1.56%     34.38% |      513539      1.56%     35.93% |      513371      1.56%     37.49% |      513767      1.56%     39.05% |      515754      1.57%     40.62% |      513154      1.56%     42.17% |      515457      1.56%     43.74% |      514984      1.56%     45.30% |      514780      1.56%     46.86% |      516074      1.57%     48.43% |      515197      1.56%     49.99% |      514803      1.56%     51.55% |      515041      1.56%     53.12% |      516141      1.57%     54.68% |      514604      1.56%     56.24% |      513831      1.56%     57.80% |      513208      1.56%     59.36% |      515386      1.56%     60.92% |      514049      1.56%     62.48% |      515775      1.57%     64.05% |      515290      1.56%     65.61% |      514515      1.56%     67.17% |      515562      1.56%     68.74% |      514957      1.56%     70.30% |      514874      1.56%     71.86% |      514296      1.56%     73.42% |      514705      1.56%     74.99% |      514815      1.56%     76.55% |      513918      1.56%     78.11% |      515669      1.56%     79.67% |      515912      1.57%     81.24% |      515326      1.56%     82.80% |      516458      1.57%     84.37% |      514604      1.56%     85.93% |      514215      1.56%     87.49% |      515427      1.56%     89.06% |      515305      1.56%     90.62% |      514094      1.56%     92.18% |      516372      1.57%     93.75% |      516096      1.57%     95.31% |      514745      1.56%     96.87% |      515231      1.56%     98.44% |      514700      1.56%    100.00% (Unspecified)
system.ruby.L1Cache_Controller.I.Request::total     32953936                       (Unspecified)
system.ruby.L1Cache_Controller.I.Forward |      514199      1.56%      1.56% |      514655      1.56%      3.12% |      514584      1.56%      4.68% |      515749      1.56%      6.25% |      515257      1.56%      7.81% |      514650      1.56%      9.37% |      514873      1.56%     10.94% |      516324      1.57%     12.50% |      515215      1.56%     14.07% |      514530      1.56%     15.63% |      515028      1.56%     17.19% |      514950      1.56%     18.75% |      515245      1.56%     20.31% |      515148      1.56%     21.88% |      514728      1.56%     23.44% |      514621      1.56%     25.00% |      515758      1.56%     26.57% |      514473      1.56%     28.13% |      513934      1.56%     29.69% |      515125      1.56%     31.25% |      514587      1.56%     32.81% |      514573      1.56%     34.37% |      515417      1.56%     35.94% |      516273      1.57%     37.50% |      515289      1.56%     39.07% |      515162      1.56%     40.63% |      516019      1.57%     42.19% |      514664      1.56%     43.76% |      514584      1.56%     45.32% |      514957      1.56%     46.88% |      514695      1.56%     48.44% |      515702      1.56%     50.01% |      514634      1.56%     51.57% |      516263      1.57%     53.13% |      515268      1.56%     54.70% |      514034      1.56%     56.26% |      515040      1.56%     57.82% |      515703      1.56%     59.39% |      515186      1.56%     60.95% |      514966      1.56%     62.51% |      515544      1.56%     64.08% |      515642      1.56%     65.64% |      514579      1.56%     67.20% |      514694      1.56%     68.76% |      514138      1.56%     70.32% |      515756      1.56%     71.89% |      515647      1.56%     73.45% |      514308      1.56%     75.01% |      514987      1.56%     76.58% |      516250      1.57%     78.14% |      515651      1.56%     79.71% |      515230      1.56%     81.27% |      513710      1.56%     82.83% |      514921      1.56%     84.39% |      513687      1.56%     85.95% |      513643      1.56%     87.51% |      513944      1.56%     89.07% |      514189      1.56%     90.63% |      514442      1.56%     92.19% |      514244      1.56%     93.75% |      515483      1.56%     95.31% |      515262      1.56%     96.88% |      514938      1.56%     98.44% |      514476      1.56%    100.00% (Unspecified)
system.ruby.L1Cache_Controller.I.Forward::total     32957427                       (Unspecified)
system.ruby.L1Cache_Controller.I.Response |      516247      1.57%      1.57% |      514454      1.56%      3.13% |      514458      1.56%      4.69% |      515634      1.56%      6.25% |      514254      1.56%      7.81% |      515192      1.56%      9.38% |      513981      1.56%     10.94% |      515011      1.56%     12.50% |      514534      1.56%     14.06% |      514256      1.56%     15.62% |      514566      1.56%     17.18% |      512194      1.55%     18.74% |      515469      1.56%     20.30% |      513851      1.56%     21.86% |      515017      1.56%     23.42% |      514608      1.56%     24.98% |      514387      1.56%     26.54% |      513626      1.56%     28.10% |      516194      1.57%     29.67% |      515388      1.56%     31.23% |      514143      1.56%     32.79% |      516100      1.57%     34.36% |      516187      1.57%     35.93% |      515290      1.56%     37.49% |      515432      1.56%     39.05% |      515034      1.56%     40.62% |      515773      1.57%     42.18% |      515060      1.56%     43.74% |      514489      1.56%     45.31% |      516734      1.57%     46.87% |      514733      1.56%     48.44% |      516655      1.57%     50.00% |      514427      1.56%     51.56% |      515184      1.56%     53.13% |      514796      1.56%     54.69% |      515487      1.56%     56.25% |      514219      1.56%     57.81% |      515419      1.56%     59.38% |      514155      1.56%     60.94% |      515746      1.56%     62.50% |      514975      1.56%     64.07% |      515505      1.56%     65.63% |      515321      1.56%     67.19% |      514506      1.56%     68.75% |      515128      1.56%     70.32% |      513632      1.56%     71.88% |      515136      1.56%     73.44% |      515745      1.56%     75.00% |      515215      1.56%     76.57% |      514737      1.56%     78.13% |      514919      1.56%     79.69% |      515864      1.57%     81.26% |      513783      1.56%     82.82% |      514464      1.56%     84.38% |      515039      1.56%     85.94% |      514889      1.56%     87.50% |      514783      1.56%     89.06% |      514211      1.56%     90.63% |      516196      1.57%     92.19% |      515788      1.57%     93.76% |      514430      1.56%     95.32% |      513809      1.56%     96.88% |      514105      1.56%     98.44% |      515269      1.56%    100.00% (Unspecified)
system.ruby.L1Cache_Controller.I.Response::total     32955833                       (Unspecified)
system.ruby.RequestType.LD.latency_hist_seqr::bucket_size            1                       (Unspecified)
system.ruby.RequestType.LD.latency_hist_seqr::max_bucket            9                       (Unspecified)
system.ruby.RequestType.LD.latency_hist_seqr::samples     32953936                       (Unspecified)
system.ruby.RequestType.LD.latency_hist_seqr::mean            1                       (Unspecified)
system.ruby.RequestType.LD.latency_hist_seqr::gmean            1                       (Unspecified)
system.ruby.RequestType.LD.latency_hist_seqr |           0      0.00%      0.00% |    32953936    100.00%    100.00% |           0      0.00%    100.00% |           0      0.00%    100.00% |           0      0.00%    100.00% |           0      0.00%    100.00% |           0      0.00%    100.00% |           0      0.00%    100.00% |           0      0.00%    100.00% |           0      0.00%    100.00% (Unspecified)
system.ruby.RequestType.LD.latency_hist_seqr::total     32953936                       (Unspecified)
system.ruby.RequestType.LD.hit_latency_hist_seqr::bucket_size            1                       (Unspecified)
system.ruby.RequestType.LD.hit_latency_hist_seqr::max_bucket            9                       (Unspecified)
system.ruby.RequestType.LD.hit_latency_hist_seqr::samples     32953936                       (Unspecified)
system.ruby.RequestType.LD.hit_latency_hist_seqr::mean            1                       (Unspecified)
system.ruby.RequestType.LD.hit_latency_hist_seqr::gmean            1                       (Unspecified)
system.ruby.RequestType.LD.hit_latency_hist_seqr |           0      0.00%      0.00% |    32953936    100.00%    100.00% |           0      0.00%    100.00% |           0      0.00%    100.00% |           0      0.00%    100.00% |           0      0.00%    100.00% |           0      0.00%    100.00% |           0      0.00%    100.00% |           0      0.00%    100.00% |           0      0.00%    100.00% (Unspecified)
system.ruby.RequestType.LD.hit_latency_hist_seqr::total     32953936                       (Unspecified)
system.ruby.RequestType.ST.latency_hist_seqr::bucket_size            1                       (Unspecified)
system.ruby.RequestType.ST.latency_hist_seqr::max_bucket            9                       (Unspecified)
system.ruby.RequestType.ST.latency_hist_seqr::samples     32955833                       (Unspecified)
system.ruby.RequestType.ST.latency_hist_seqr::mean            1                       (Unspecified)
system.ruby.RequestType.ST.latency_hist_seqr::gmean            1                       (Unspecified)
system.ruby.RequestType.ST.latency_hist_seqr |           0      0.00%      0.00% |    32955833    100.00%    100.00% |           0      0.00%    100.00% |           0      0.00%    100.00% |           0      0.00%    100.00% |           0      0.00%    100.00% |           0      0.00%    100.00% |           0      0.00%    100.00% |           0      0.00%    100.00% |           0      0.00%    100.00% (Unspecified)
system.ruby.RequestType.ST.latency_hist_seqr::total     32955833                       (Unspecified)
system.ruby.RequestType.ST.hit_latency_hist_seqr::bucket_size            1                       (Unspecified)
system.ruby.RequestType.ST.hit_latency_hist_seqr::max_bucket            9                       (Unspecified)
system.ruby.RequestType.ST.hit_latency_hist_seqr::samples     32955833                       (Unspecified)
system.ruby.RequestType.ST.hit_latency_hist_seqr::mean            1                       (Unspecified)
system.ruby.RequestType.ST.hit_latency_hist_seqr::gmean            1                       (Unspecified)
system.ruby.RequestType.ST.hit_latency_hist_seqr |           0      0.00%      0.00% |    32955833    100.00%    100.00% |           0      0.00%    100.00% |           0      0.00%    100.00% |           0      0.00%    100.00% |           0      0.00%    100.00% |           0      0.00%    100.00% |           0      0.00%    100.00% |           0      0.00%    100.00% |           0      0.00%    100.00% (Unspecified)
system.ruby.RequestType.ST.hit_latency_hist_seqr::total     32955833                       (Unspecified)
system.ruby.RequestType.IFETCH.latency_hist_seqr::bucket_size            1                       (Unspecified)
system.ruby.RequestType.IFETCH.latency_hist_seqr::max_bucket            9                       (Unspecified)
system.ruby.RequestType.IFETCH.latency_hist_seqr::samples     32957427                       (Unspecified)
system.ruby.RequestType.IFETCH.latency_hist_seqr::mean            1                       (Unspecified)
system.ruby.RequestType.IFETCH.latency_hist_seqr::gmean            1                       (Unspecified)
system.ruby.RequestType.IFETCH.latency_hist_seqr |           0      0.00%      0.00% |    32957427    100.00%    100.00% |           0      0.00%    100.00% |           0      0.00%    100.00% |           0      0.00%    100.00% |           0      0.00%    100.00% |           0      0.00%    100.00% |           0      0.00%    100.00% |           0      0.00%    100.00% |           0      0.00%    100.00% (Unspecified)
system.ruby.RequestType.IFETCH.latency_hist_seqr::total     32957427                       (Unspecified)
system.ruby.RequestType.IFETCH.hit_latency_hist_seqr::bucket_size            1                       (Unspecified)
system.ruby.RequestType.IFETCH.hit_latency_hist_seqr::max_bucket            9                       (Unspecified)
system.ruby.RequestType.IFETCH.hit_latency_hist_seqr::samples     32957427                       (Unspecified)
system.ruby.RequestType.IFETCH.hit_latency_hist_seqr::mean            1                       (Unspecified)
system.ruby.RequestType.IFETCH.hit_latency_hist_seqr::gmean            1                       (Unspecified)
system.ruby.RequestType.IFETCH.hit_latency_hist_seqr |           0      0.00%      0.00% |    32957427    100.00%    100.00% |           0      0.00%    100.00% |           0      0.00%    100.00% |           0      0.00%    100.00% |           0      0.00%    100.00% |           0      0.00%    100.00% |           0      0.00%    100.00% |           0      0.00%    100.00% |           0      0.00%    100.00% (Unspecified)
system.ruby.RequestType.IFETCH.hit_latency_hist_seqr::total     32957427                       (Unspecified)
system.ruby.clk_domain.clock                      250                       # Clock period in ticks (Tick)
system.ruby.dir_cntrl0.forwardToDir.m_msg_count       515755                       # Number of messages passed the buffer (Count)
system.ruby.dir_cntrl0.forwardToDir.m_buf_msgs     0.060042                       # Average number of messages in buffer ((Count/Tick))
system.ruby.dir_cntrl0.power_state.pwrStateResidencyTicks::UNDEFINED   2147483750                       # Cumulative time (in ticks) in various power states (Tick)
system.ruby.dir_cntrl0.requestToDir.m_msg_count       513957                       # Number of messages passed the buffer (Count)
system.ruby.dir_cntrl0.requestToDir.m_buf_msgs     0.059832                       # Average number of messages in buffer ((Count/Tick))
system.ruby.dir_cntrl0.responseToDir.m_msg_count       137010                       # Number of messages passed the buffer (Count)
system.ruby.dir_cntrl0.responseToDir.m_buf_msgs     0.015950                       # Average number of messages in buffer ((Count/Tick))
system.ruby.dir_cntrl1.forwardToDir.m_msg_count       514758                       # Number of messages passed the buffer (Count)
system.ruby.dir_cntrl1.forwardToDir.m_buf_msgs     0.059926                       # Average number of messages in buffer ((Count/Tick))
system.ruby.dir_cntrl1.power_state.pwrStateResidencyTicks::UNDEFINED   2147483750                       # Cumulative time (in ticks) in various power states (Tick)
system.ruby.dir_cntrl1.requestToDir.m_msg_count       514818                       # Number of messages passed the buffer (Count)
system.ruby.dir_cntrl1.requestToDir.m_buf_msgs     0.059933                       # Average number of messages in buffer ((Count/Tick))
system.ruby.dir_cntrl1.responseToDir.m_msg_count       136916                       # Number of messages passed the buffer (Count)
system.ruby.dir_cntrl1.responseToDir.m_buf_msgs     0.015939                       # Average number of messages in buffer ((Count/Tick))
system.ruby.dir_cntrl10.forwardToDir.m_msg_count       515724                       # Number of messages passed the buffer (Count)
system.ruby.dir_cntrl10.forwardToDir.m_buf_msgs     0.060038                       # Average number of messages in buffer ((Count/Tick))
system.ruby.dir_cntrl10.power_state.pwrStateResidencyTicks::UNDEFINED   2147483750                       # Cumulative time (in ticks) in various power states (Tick)
system.ruby.dir_cntrl10.requestToDir.m_msg_count       515355                       # Number of messages passed the buffer (Count)
system.ruby.dir_cntrl10.requestToDir.m_buf_msgs     0.059995                       # Average number of messages in buffer ((Count/Tick))
system.ruby.dir_cntrl10.responseToDir.m_msg_count       136842                       # Number of messages passed the buffer (Count)
system.ruby.dir_cntrl10.responseToDir.m_buf_msgs     0.015931                       # Average number of messages in buffer ((Count/Tick))
system.ruby.dir_cntrl11.forwardToDir.m_msg_count       514186                       # Number of messages passed the buffer (Count)
system.ruby.dir_cntrl11.forwardToDir.m_buf_msgs     0.059859                       # Average number of messages in buffer ((Count/Tick))
system.ruby.dir_cntrl11.power_state.pwrStateResidencyTicks::UNDEFINED   2147483750                       # Cumulative time (in ticks) in various power states (Tick)
system.ruby.dir_cntrl11.requestToDir.m_msg_count       515888                       # Number of messages passed the buffer (Count)
system.ruby.dir_cntrl11.requestToDir.m_buf_msgs     0.060057                       # Average number of messages in buffer ((Count/Tick))
system.ruby.dir_cntrl11.responseToDir.m_msg_count       137494                       # Number of messages passed the buffer (Count)
system.ruby.dir_cntrl11.responseToDir.m_buf_msgs     0.016006                       # Average number of messages in buffer ((Count/Tick))
system.ruby.dir_cntrl12.forwardToDir.m_msg_count       513492                       # Number of messages passed the buffer (Count)
system.ruby.dir_cntrl12.forwardToDir.m_buf_msgs     0.059778                       # Average number of messages in buffer ((Count/Tick))
system.ruby.dir_cntrl12.power_state.pwrStateResidencyTicks::UNDEFINED   2147483750                       # Cumulative time (in ticks) in various power states (Tick)
system.ruby.dir_cntrl12.requestToDir.m_msg_count       514912                       # Number of messages passed the buffer (Count)
system.ruby.dir_cntrl12.requestToDir.m_buf_msgs     0.059944                       # Average number of messages in buffer ((Count/Tick))
system.ruby.dir_cntrl12.responseToDir.m_msg_count       137039                       # Number of messages passed the buffer (Count)
system.ruby.dir_cntrl12.responseToDir.m_buf_msgs     0.015953                       # Average number of messages in buffer ((Count/Tick))
system.ruby.dir_cntrl13.forwardToDir.m_msg_count       516701                       # Number of messages passed the buffer (Count)
system.ruby.dir_cntrl13.forwardToDir.m_buf_msgs     0.060152                       # Average number of messages in buffer ((Count/Tick))
system.ruby.dir_cntrl13.power_state.pwrStateResidencyTicks::UNDEFINED   2147483750                       # Cumulative time (in ticks) in various power states (Tick)
system.ruby.dir_cntrl13.requestToDir.m_msg_count       514161                       # Number of messages passed the buffer (Count)
system.ruby.dir_cntrl13.requestToDir.m_buf_msgs     0.059856                       # Average number of messages in buffer ((Count/Tick))
system.ruby.dir_cntrl13.responseToDir.m_msg_count       136947                       # Number of messages passed the buffer (Count)
system.ruby.dir_cntrl13.responseToDir.m_buf_msgs     0.015943                       # Average number of messages in buffer ((Count/Tick))
system.ruby.dir_cntrl14.forwardToDir.m_msg_count       514412                       # Number of messages passed the buffer (Count)
system.ruby.dir_cntrl14.forwardToDir.m_buf_msgs     0.059885                       # Average number of messages in buffer ((Count/Tick))
system.ruby.dir_cntrl14.power_state.pwrStateResidencyTicks::UNDEFINED   2147483750                       # Cumulative time (in ticks) in various power states (Tick)
system.ruby.dir_cntrl14.requestToDir.m_msg_count       514809                       # Number of messages passed the buffer (Count)
system.ruby.dir_cntrl14.requestToDir.m_buf_msgs     0.059932                       # Average number of messages in buffer ((Count/Tick))
system.ruby.dir_cntrl14.responseToDir.m_msg_count       136720                       # Number of messages passed the buffer (Count)
system.ruby.dir_cntrl14.responseToDir.m_buf_msgs     0.015916                       # Average number of messages in buffer ((Count/Tick))
system.ruby.dir_cntrl15.forwardToDir.m_msg_count       515412                       # Number of messages passed the buffer (Count)
system.ruby.dir_cntrl15.forwardToDir.m_buf_msgs     0.060002                       # Average number of messages in buffer ((Count/Tick))
system.ruby.dir_cntrl15.power_state.pwrStateResidencyTicks::UNDEFINED   2147483750                       # Cumulative time (in ticks) in various power states (Tick)
system.ruby.dir_cntrl15.requestToDir.m_msg_count       515258                       # Number of messages passed the buffer (Count)
system.ruby.dir_cntrl15.requestToDir.m_buf_msgs     0.059984                       # Average number of messages in buffer ((Count/Tick))
system.ruby.dir_cntrl15.responseToDir.m_msg_count       136972                       # Number of messages passed the buffer (Count)
system.ruby.dir_cntrl15.responseToDir.m_buf_msgs     0.015946                       # Average number of messages in buffer ((Count/Tick))
system.ruby.dir_cntrl16.forwardToDir.m_msg_count       515494                       # Number of messages passed the buffer (Count)
system.ruby.dir_cntrl16.forwardToDir.m_buf_msgs     0.060011                       # Average number of messages in buffer ((Count/Tick))
system.ruby.dir_cntrl16.power_state.pwrStateResidencyTicks::UNDEFINED   2147483750                       # Cumulative time (in ticks) in various power states (Tick)
system.ruby.dir_cntrl16.requestToDir.m_msg_count       514067                       # Number of messages passed the buffer (Count)
system.ruby.dir_cntrl16.requestToDir.m_buf_msgs     0.059845                       # Average number of messages in buffer ((Count/Tick))
system.ruby.dir_cntrl16.responseToDir.m_msg_count       137051                       # Number of messages passed the buffer (Count)
system.ruby.dir_cntrl16.responseToDir.m_buf_msgs     0.015955                       # Average number of messages in buffer ((Count/Tick))
system.ruby.dir_cntrl17.forwardToDir.m_msg_count       514655                       # Number of messages passed the buffer (Count)
system.ruby.dir_cntrl17.forwardToDir.m_buf_msgs     0.059914                       # Average number of messages in buffer ((Count/Tick))
system.ruby.dir_cntrl17.power_state.pwrStateResidencyTicks::UNDEFINED   2147483750                       # Cumulative time (in ticks) in various power states (Tick)
system.ruby.dir_cntrl17.requestToDir.m_msg_count       516163                       # Number of messages passed the buffer (Count)
system.ruby.dir_cntrl17.requestToDir.m_buf_msgs     0.060089                       # Average number of messages in buffer ((Count/Tick))
system.ruby.dir_cntrl17.responseToDir.m_msg_count       136704                       # Number of messages passed the buffer (Count)
system.ruby.dir_cntrl17.responseToDir.m_buf_msgs     0.015914                       # Average number of messages in buffer ((Count/Tick))
system.ruby.dir_cntrl18.forwardToDir.m_msg_count       514249                       # Number of messages passed the buffer (Count)
system.ruby.dir_cntrl18.forwardToDir.m_buf_msgs     0.059866                       # Average number of messages in buffer ((Count/Tick))
system.ruby.dir_cntrl18.power_state.pwrStateResidencyTicks::UNDEFINED   2147483750                       # Cumulative time (in ticks) in various power states (Tick)
system.ruby.dir_cntrl18.requestToDir.m_msg_count       515636                       # Number of messages passed the buffer (Count)
system.ruby.dir_cntrl18.requestToDir.m_buf_msgs     0.060028                       # Average number of messages in buffer ((Count/Tick))
system.ruby.dir_cntrl18.responseToDir.m_msg_count       136991                       # Number of messages passed the buffer (Count)
system.ruby.dir_cntrl18.responseToDir.m_buf_msgs     0.015948                       # Average number of messages in buffer ((Count/Tick))
system.ruby.dir_cntrl19.forwardToDir.m_msg_count       515171                       # Number of messages passed the buffer (Count)
system.ruby.dir_cntrl19.forwardToDir.m_buf_msgs     0.059974                       # Average number of messages in buffer ((Count/Tick))
system.ruby.dir_cntrl19.power_state.pwrStateResidencyTicks::UNDEFINED   2147483750                       # Cumulative time (in ticks) in various power states (Tick)
system.ruby.dir_cntrl19.requestToDir.m_msg_count       514515                       # Number of messages passed the buffer (Count)
system.ruby.dir_cntrl19.requestToDir.m_buf_msgs     0.059897                       # Average number of messages in buffer ((Count/Tick))
system.ruby.dir_cntrl19.responseToDir.m_msg_count       136406                       # Number of messages passed the buffer (Count)
system.ruby.dir_cntrl19.responseToDir.m_buf_msgs     0.015880                       # Average number of messages in buffer ((Count/Tick))
system.ruby.dir_cntrl2.forwardToDir.m_msg_count       515422                       # Number of messages passed the buffer (Count)
system.ruby.dir_cntrl2.forwardToDir.m_buf_msgs     0.060003                       # Average number of messages in buffer ((Count/Tick))
system.ruby.dir_cntrl2.power_state.pwrStateResidencyTicks::UNDEFINED   2147483750                       # Cumulative time (in ticks) in various power states (Tick)
system.ruby.dir_cntrl2.requestToDir.m_msg_count       514763                       # Number of messages passed the buffer (Count)
system.ruby.dir_cntrl2.requestToDir.m_buf_msgs     0.059926                       # Average number of messages in buffer ((Count/Tick))
system.ruby.dir_cntrl2.responseToDir.m_msg_count       136227                       # Number of messages passed the buffer (Count)
system.ruby.dir_cntrl2.responseToDir.m_buf_msgs     0.015859                       # Average number of messages in buffer ((Count/Tick))
system.ruby.dir_cntrl20.forwardToDir.m_msg_count       515524                       # Number of messages passed the buffer (Count)
system.ruby.dir_cntrl20.forwardToDir.m_buf_msgs     0.060015                       # Average number of messages in buffer ((Count/Tick))
system.ruby.dir_cntrl20.power_state.pwrStateResidencyTicks::UNDEFINED   2147483750                       # Cumulative time (in ticks) in various power states (Tick)
system.ruby.dir_cntrl20.requestToDir.m_msg_count       515247                       # Number of messages passed the buffer (Count)
system.ruby.dir_cntrl20.requestToDir.m_buf_msgs     0.059983                       # Average number of messages in buffer ((Count/Tick))
system.ruby.dir_cntrl20.responseToDir.m_msg_count       136735                       # Number of messages passed the buffer (Count)
system.ruby.dir_cntrl20.responseToDir.m_buf_msgs     0.015918                       # Average number of messages in buffer ((Count/Tick))
system.ruby.dir_cntrl21.forwardToDir.m_msg_count       515319                       # Number of messages passed the buffer (Count)
system.ruby.dir_cntrl21.forwardToDir.m_buf_msgs     0.059991                       # Average number of messages in buffer ((Count/Tick))
system.ruby.dir_cntrl21.power_state.pwrStateResidencyTicks::UNDEFINED   2147483750                       # Cumulative time (in ticks) in various power states (Tick)
system.ruby.dir_cntrl21.requestToDir.m_msg_count       514106                       # Number of messages passed the buffer (Count)
system.ruby.dir_cntrl21.requestToDir.m_buf_msgs     0.059850                       # Average number of messages in buffer ((Count/Tick))
system.ruby.dir_cntrl21.responseToDir.m_msg_count       136740                       # Number of messages passed the buffer (Count)
system.ruby.dir_cntrl21.responseToDir.m_buf_msgs     0.015919                       # Average number of messages in buffer ((Count/Tick))
system.ruby.dir_cntrl22.forwardToDir.m_msg_count       513660                       # Number of messages passed the buffer (Count)
system.ruby.dir_cntrl22.forwardToDir.m_buf_msgs     0.059798                       # Average number of messages in buffer ((Count/Tick))
system.ruby.dir_cntrl22.power_state.pwrStateResidencyTicks::UNDEFINED   2147483750                       # Cumulative time (in ticks) in various power states (Tick)
system.ruby.dir_cntrl22.requestToDir.m_msg_count       515149                       # Number of messages passed the buffer (Count)
system.ruby.dir_cntrl22.requestToDir.m_buf_msgs     0.059971                       # Average number of messages in buffer ((Count/Tick))
system.ruby.dir_cntrl22.responseToDir.m_msg_count       136647                       # Number of messages passed the buffer (Count)
system.ruby.dir_cntrl22.responseToDir.m_buf_msgs     0.015908                       # Average number of messages in buffer ((Count/Tick))
system.ruby.dir_cntrl23.forwardToDir.m_msg_count       514719                       # Number of messages passed the buffer (Count)
system.ruby.dir_cntrl23.forwardToDir.m_buf_msgs     0.059921                       # Average number of messages in buffer ((Count/Tick))
system.ruby.dir_cntrl23.power_state.pwrStateResidencyTicks::UNDEFINED   2147483750                       # Cumulative time (in ticks) in various power states (Tick)
system.ruby.dir_cntrl23.requestToDir.m_msg_count       514456                       # Number of messages passed the buffer (Count)
system.ruby.dir_cntrl23.requestToDir.m_buf_msgs     0.059891                       # Average number of messages in buffer ((Count/Tick))
system.ruby.dir_cntrl23.responseToDir.m_msg_count       136836                       # Number of messages passed the buffer (Count)
system.ruby.dir_cntrl23.responseToDir.m_buf_msgs     0.015930                       # Average number of messages in buffer ((Count/Tick))
system.ruby.dir_cntrl24.forwardToDir.m_msg_count       515019                       # Number of messages passed the buffer (Count)
system.ruby.dir_cntrl24.forwardToDir.m_buf_msgs     0.059956                       # Average number of messages in buffer ((Count/Tick))
system.ruby.dir_cntrl24.power_state.pwrStateResidencyTicks::UNDEFINED   2147483750                       # Cumulative time (in ticks) in various power states (Tick)
system.ruby.dir_cntrl24.requestToDir.m_msg_count       514178                       # Number of messages passed the buffer (Count)
system.ruby.dir_cntrl24.requestToDir.m_buf_msgs     0.059858                       # Average number of messages in buffer ((Count/Tick))
system.ruby.dir_cntrl24.responseToDir.m_msg_count       136779                       # Number of messages passed the buffer (Count)
system.ruby.dir_cntrl24.responseToDir.m_buf_msgs     0.015923                       # Average number of messages in buffer ((Count/Tick))
system.ruby.dir_cntrl25.forwardToDir.m_msg_count       515226                       # Number of messages passed the buffer (Count)
system.ruby.dir_cntrl25.forwardToDir.m_buf_msgs     0.059980                       # Average number of messages in buffer ((Count/Tick))
system.ruby.dir_cntrl25.power_state.pwrStateResidencyTicks::UNDEFINED   2147483750                       # Cumulative time (in ticks) in various power states (Tick)
system.ruby.dir_cntrl25.requestToDir.m_msg_count       513529                       # Number of messages passed the buffer (Count)
system.ruby.dir_cntrl25.requestToDir.m_buf_msgs     0.059783                       # Average number of messages in buffer ((Count/Tick))
system.ruby.dir_cntrl25.responseToDir.m_msg_count       136853                       # Number of messages passed the buffer (Count)
system.ruby.dir_cntrl25.responseToDir.m_buf_msgs     0.015932                       # Average number of messages in buffer ((Count/Tick))
system.ruby.dir_cntrl26.forwardToDir.m_msg_count       514351                       # Number of messages passed the buffer (Count)
system.ruby.dir_cntrl26.forwardToDir.m_buf_msgs     0.059878                       # Average number of messages in buffer ((Count/Tick))
system.ruby.dir_cntrl26.power_state.pwrStateResidencyTicks::UNDEFINED   2147483750                       # Cumulative time (in ticks) in various power states (Tick)
system.ruby.dir_cntrl26.requestToDir.m_msg_count       515508                       # Number of messages passed the buffer (Count)
system.ruby.dir_cntrl26.requestToDir.m_buf_msgs     0.060013                       # Average number of messages in buffer ((Count/Tick))
system.ruby.dir_cntrl26.responseToDir.m_msg_count       137647                       # Number of messages passed the buffer (Count)
system.ruby.dir_cntrl26.responseToDir.m_buf_msgs     0.016024                       # Average number of messages in buffer ((Count/Tick))
system.ruby.dir_cntrl27.forwardToDir.m_msg_count       514064                       # Number of messages passed the buffer (Count)
system.ruby.dir_cntrl27.forwardToDir.m_buf_msgs     0.059845                       # Average number of messages in buffer ((Count/Tick))
system.ruby.dir_cntrl27.power_state.pwrStateResidencyTicks::UNDEFINED   2147483750                       # Cumulative time (in ticks) in various power states (Tick)
[...]
system.ruby.network.sankey.vcvn35.vcvn5             0                       (Unspecified)
system.ruby.network.sankey.vcvn35.vcvn6             0                       (Unspecified)
system.ruby.network.sankey.vcvn35.vcvn7             0                       (Unspecified)
system.ruby.network.sankey.vcvn35.vcvn8             0                       (Unspecified)
system.ruby.network.sankey.vcvn35.vcvn9             0                       (Unspecified)
system.ruby.network.sankey.vcvn4.vcvn0        2122550                       (Unspecified)
system.ruby.network.sankey.vcvn4.vcvn1         676834                       (Unspecified)
system.ruby.network.sankey.vcvn4.vcvn10         20417                       (Unspecified)
system.ruby.network.sankey.vcvn4.vcvn11         15495                       (Unspecified)
system.ruby.network.sankey.vcvn4.vcvn12             0                       (Unspecified)
system.ruby.network.sankey.vcvn4.vcvn13             0                       (Unspecified)
system.ruby.network.sankey.vcvn4.vcvn14             0                       (Unspecified)
system.ruby.network.sankey.vcvn4.vcvn15             0                       (Unspecified)
system.ruby.network.sankey.vcvn4.vcvn16             0                       (Unspecified)
system.ruby.network.sankey.vcvn4.vcvn17             0                       (Unspecified)
system.ruby.network.sankey.vcvn4.vcvn18             0                       (Unspecified)
system.ruby.network.sankey.vcvn4.vcvn19             0                       (Unspecified)
system.ruby.network.sankey.vcvn4.vcvn2         133958                       (Unspecified)
system.ruby.network.sankey.vcvn4.vcvn20             0                       (Unspecified)
system.ruby.network.sankey.vcvn4.vcvn21             0                       (Unspecified)
system.ruby.network.sankey.vcvn4.vcvn22             0                       (Unspecified)
system.ruby.network.sankey.vcvn4.vcvn23             0                       (Unspecified)
system.ruby.network.sankey.vcvn4.vcvn24             0                       (Unspecified)
system.ruby.network.sankey.vcvn4.vcvn25             0                       (Unspecified)
system.ruby.network.sankey.vcvn4.vcvn26             0                       (Unspecified)
system.ruby.network.sankey.vcvn4.vcvn27             0                       (Unspecified)
system.ruby.network.sankey.vcvn4.vcvn28             0                       (Unspecified)
system.ruby.network.sankey.vcvn4.vcvn29             0                       (Unspecified)
system.ruby.network.sankey.vcvn4.vcvn3          16571                       (Unspecified)
system.ruby.network.sankey.vcvn4.vcvn30             0                       (Unspecified)
system.ruby.network.sankey.vcvn4.vcvn31             0                       (Unspecified)
system.ruby.network.sankey.vcvn4.vcvn32             0                       (Unspecified)
system.ruby.network.sankey.vcvn4.vcvn33             0                       (Unspecified)
system.ruby.network.sankey.vcvn4.vcvn34             0                       (Unspecified)
system.ruby.network.sankey.vcvn4.vcvn35             0                       (Unspecified)
system.ruby.network.sankey.vcvn4.vcvn4           1107                       (Unspecified)
system.ruby.network.sankey.vcvn4.vcvn5              4                       (Unspecified)
system.ruby.network.sankey.vcvn4.vcvn6              0                       (Unspecified)
system.ruby.network.sankey.vcvn4.vcvn7              0                       (Unspecified)
system.ruby.network.sankey.vcvn4.vcvn8              0                       (Unspecified)
system.ruby.network.sankey.vcvn4.vcvn9              0                       (Unspecified)
system.ruby.network.sankey.vcvn5.vcvn0        2110453                       (Unspecified)
system.ruby.network.sankey.vcvn5.vcvn1         669964                       (Unspecified)
system.ruby.network.sankey.vcvn5.vcvn10         20132                       (Unspecified)
system.ruby.network.sankey.vcvn5.vcvn11         15247                       (Unspecified)
system.ruby.network.sankey.vcvn5.vcvn12             0                       (Unspecified)
system.ruby.network.sankey.vcvn5.vcvn13             0                       (Unspecified)
system.ruby.network.sankey.vcvn5.vcvn14             0                       (Unspecified)
system.ruby.network.sankey.vcvn5.vcvn15             0                       (Unspecified)
system.ruby.network.sankey.vcvn5.vcvn16             0                       (Unspecified)
system.ruby.network.sankey.vcvn5.vcvn17             0                       (Unspecified)
system.ruby.network.sankey.vcvn5.vcvn18             0                       (Unspecified)
system.ruby.network.sankey.vcvn5.vcvn19             0                       (Unspecified)
system.ruby.network.sankey.vcvn5.vcvn2         133409                       (Unspecified)
system.ruby.network.sankey.vcvn5.vcvn20             0                       (Unspecified)
system.ruby.network.sankey.vcvn5.vcvn21             0                       (Unspecified)
system.ruby.network.sankey.vcvn5.vcvn22             0                       (Unspecified)
system.ruby.network.sankey.vcvn5.vcvn23             0                       (Unspecified)
system.ruby.network.sankey.vcvn5.vcvn24             0                       (Unspecified)
system.ruby.network.sankey.vcvn5.vcvn25             0                       (Unspecified)
system.ruby.network.sankey.vcvn5.vcvn26             0                       (Unspecified)
system.ruby.network.sankey.vcvn5.vcvn27             0                       (Unspecified)
system.ruby.network.sankey.vcvn5.vcvn28             0                       (Unspecified)
system.ruby.network.sankey.vcvn5.vcvn29             0                       (Unspecified)
system.ruby.network.sankey.vcvn5.vcvn3          16481                       (Unspecified)
system.ruby.network.sankey.vcvn5.vcvn30             0                       (Unspecified)
system.ruby.network.sankey.vcvn5.vcvn31             0                       (Unspecified)
system.ruby.network.sankey.vcvn5.vcvn32             0                       (Unspecified)
system.ruby.network.sankey.vcvn5.vcvn33             0                       (Unspecified)
system.ruby.network.sankey.vcvn5.vcvn34             0                       (Unspecified)
system.ruby.network.sankey.vcvn5.vcvn35             0                       (Unspecified)
system.ruby.network.sankey.vcvn5.vcvn4           1050                       (Unspecified)
system.ruby.network.sankey.vcvn5.vcvn5              2                       (Unspecified)
system.ruby.network.sankey.vcvn5.vcvn6              0                       (Unspecified)
system.ruby.network.sankey.vcvn5.vcvn7              0                       (Unspecified)
system.ruby.network.sankey.vcvn5.vcvn8              0                       (Unspecified)
system.ruby.network.sankey.vcvn5.vcvn9              0                       (Unspecified)
system.ruby.network.sankey.vcvn6.vcvn0        2100617                       (Unspecified)
system.ruby.network.sankey.vcvn6.vcvn1         667260                       (Unspecified)
system.ruby.network.sankey.vcvn6.vcvn10         19735                       (Unspecified)
system.ruby.network.sankey.vcvn6.vcvn11         15432                       (Unspecified)
system.ruby.network.sankey.vcvn6.vcvn12             0                       (Unspecified)
system.ruby.network.sankey.vcvn6.vcvn13             0                       (Unspecified)
system.ruby.network.sankey.vcvn6.vcvn14             0                       (Unspecified)
system.ruby.network.sankey.vcvn6.vcvn15             0                       (Unspecified)
system.ruby.network.sankey.vcvn6.vcvn16             0                       (Unspecified)
system.ruby.network.sankey.vcvn6.vcvn17             0                       (Unspecified)
system.ruby.network.sankey.vcvn6.vcvn18             0                       (Unspecified)
system.ruby.network.sankey.vcvn6.vcvn19             0                       (Unspecified)
system.ruby.network.sankey.vcvn6.vcvn2         131677                       (Unspecified)
system.ruby.network.sankey.vcvn6.vcvn20             0                       (Unspecified)
system.ruby.network.sankey.vcvn6.vcvn21             0                       (Unspecified)
system.ruby.network.sankey.vcvn6.vcvn22             0                       (Unspecified)
system.ruby.network.sankey.vcvn6.vcvn23             0                       (Unspecified)
system.ruby.network.sankey.vcvn6.vcvn24             0                       (Unspecified)
system.ruby.network.sankey.vcvn6.vcvn25             0                       (Unspecified)
system.ruby.network.sankey.vcvn6.vcvn26             0                       (Unspecified)
system.ruby.network.sankey.vcvn6.vcvn27             0                       (Unspecified)
system.ruby.network.sankey.vcvn6.vcvn28             0                       (Unspecified)
system.ruby.network.sankey.vcvn6.vcvn29             0                       (Unspecified)
system.ruby.network.sankey.vcvn6.vcvn3          16511                       (Unspecified)
system.ruby.network.sankey.vcvn6.vcvn30             0                       (Unspecified)
system.ruby.network.sankey.vcvn6.vcvn31             0                       (Unspecified)
system.ruby.network.sankey.vcvn6.vcvn32             0                       (Unspecified)
system.ruby.network.sankey.vcvn6.vcvn33             0                       (Unspecified)
system.ruby.network.sankey.vcvn6.vcvn34             0                       (Unspecified)
system.ruby.network.sankey.vcvn6.vcvn35             0                       (Unspecified)
system.ruby.network.sankey.vcvn6.vcvn4           1082                       (Unspecified)
system.ruby.network.sankey.vcvn6.vcvn5              9                       (Unspecified)
system.ruby.network.sankey.vcvn6.vcvn6              0                       (Unspecified)
system.ruby.network.sankey.vcvn6.vcvn7              0                       (Unspecified)
system.ruby.network.sankey.vcvn6.vcvn8              0                       (Unspecified)
system.ruby.network.sankey.vcvn6.vcvn9              0                       (Unspecified)
system.ruby.network.sankey.vcvn7.vcvn0        2093583                       (Unspecified)
system.ruby.network.sankey.vcvn7.vcvn1         664754                       (Unspecified)
system.ruby.network.sankey.vcvn7.vcvn10         19782                       (Unspecified)
system.ruby.network.sankey.vcvn7.vcvn11         15262                       (Unspecified)
system.ruby.network.sankey.vcvn7.vcvn12             0                       (Unspecified)
system.ruby.network.sankey.vcvn7.vcvn13             0                       (Unspecified)
system.ruby.network.sankey.vcvn7.vcvn14             0                       (Unspecified)
system.ruby.network.sankey.vcvn7.vcvn15             0                       (Unspecified)
system.ruby.network.sankey.vcvn7.vcvn16             0                       (Unspecified)
system.ruby.network.sankey.vcvn7.vcvn17             0                       (Unspecified)
system.ruby.network.sankey.vcvn7.vcvn18             0                       (Unspecified)
system.ruby.network.sankey.vcvn7.vcvn19             0                       (Unspecified)
system.ruby.network.sankey.vcvn7.vcvn2         131222                       (Unspecified)
system.ruby.network.sankey.vcvn7.vcvn20             0                       (Unspecified)
system.ruby.network.sankey.vcvn7.vcvn21             0                       (Unspecified)
system.ruby.network.sankey.vcvn7.vcvn22             0                       (Unspecified)
system.ruby.network.sankey.vcvn7.vcvn23             0                       (Unspecified)
system.ruby.network.sankey.vcvn7.vcvn24             0                       (Unspecified)
system.ruby.network.sankey.vcvn7.vcvn25             0                       (Unspecified)
system.ruby.network.sankey.vcvn7.vcvn26             0                       (Unspecified)
system.ruby.network.sankey.vcvn7.vcvn27             0                       (Unspecified)
system.ruby.network.sankey.vcvn7.vcvn28             0                       (Unspecified)
system.ruby.network.sankey.vcvn7.vcvn29             0                       (Unspecified)
system.ruby.network.sankey.vcvn7.vcvn3          16213                       (Unspecified)
system.ruby.network.sankey.vcvn7.vcvn30             0                       (Unspecified)
system.ruby.network.sankey.vcvn7.vcvn31             0                       (Unspecified)
system.ruby.network.sankey.vcvn7.vcvn32             0                       (Unspecified)
system.ruby.network.sankey.vcvn7.vcvn33             0                       (Unspecified)
system.ruby.network.sankey.vcvn7.vcvn34             0                       (Unspecified)
system.ruby.network.sankey.vcvn7.vcvn35             0                       (Unspecified)
system.ruby.network.sankey.vcvn7.vcvn4           1098                       (Unspecified)
system.ruby.network.sankey.vcvn7.vcvn5             12                       (Unspecified)
system.ruby.network.sankey.vcvn7.vcvn6              0                       (Unspecified)
system.ruby.network.sankey.vcvn7.vcvn7              0                       (Unspecified)
system.ruby.network.sankey.vcvn7.vcvn8              0                       (Unspecified)
system.ruby.network.sankey.vcvn7.vcvn9              0                       (Unspecified)
system.ruby.network.sankey.vcvn8.vcvn0        2087793                       (Unspecified)
system.ruby.network.sankey.vcvn8.vcvn1         662661                       (Unspecified)
system.ruby.network.sankey.vcvn8.vcvn10         19483                       (Unspecified)
system.ruby.network.sankey.vcvn8.vcvn11         15404                       (Unspecified)
system.ruby.network.sankey.vcvn8.vcvn12             0                       (Unspecified)
system.ruby.network.sankey.vcvn8.vcvn13             0                       (Unspecified)
system.ruby.network.sankey.vcvn8.vcvn14             0                       (Unspecified)
system.ruby.network.sankey.vcvn8.vcvn15             0                       (Unspecified)
system.ruby.network.sankey.vcvn8.vcvn16             0                       (Unspecified)
system.ruby.network.sankey.vcvn8.vcvn17             0                       (Unspecified)
system.ruby.network.sankey.vcvn8.vcvn18             0                       (Unspecified)
system.ruby.network.sankey.vcvn8.vcvn19             0                       (Unspecified)
system.ruby.network.sankey.vcvn8.vcvn2         131106                       (Unspecified)
system.ruby.network.sankey.vcvn8.vcvn20             0                       (Unspecified)
system.ruby.network.sankey.vcvn8.vcvn21             0                       (Unspecified)
system.ruby.network.sankey.vcvn8.vcvn22             0                       (Unspecified)
system.ruby.network.sankey.vcvn8.vcvn23             0                       (Unspecified)
system.ruby.network.sankey.vcvn8.vcvn24             0                       (Unspecified)
system.ruby.network.sankey.vcvn8.vcvn25             0                       (Unspecified)
system.ruby.network.sankey.vcvn8.vcvn26             0                       (Unspecified)
system.ruby.network.sankey.vcvn8.vcvn27             0                       (Unspecified)
system.ruby.network.sankey.vcvn8.vcvn28             0                       (Unspecified)
system.ruby.network.sankey.vcvn8.vcvn29             0                       (Unspecified)
system.ruby.network.sankey.vcvn8.vcvn3          16268                       (Unspecified)
system.ruby.network.sankey.vcvn8.vcvn30             0                       (Unspecified)
system.ruby.network.sankey.vcvn8.vcvn31             0                       (Unspecified)
system.ruby.network.sankey.vcvn8.vcvn32             0                       (Unspecified)
system.ruby.network.sankey.vcvn8.vcvn33             0                       (Unspecified)
system.ruby.network.sankey.vcvn8.vcvn34             0                       (Unspecified)
system.ruby.network.sankey.vcvn8.vcvn35             0                       (Unspecified)
system.ruby.network.sankey.vcvn8.vcvn4           1090                       (Unspecified)
system.ruby.network.sankey.vcvn8.vcvn5             10                       (Unspecified)
system.ruby.network.sankey.vcvn8.vcvn6              0                       (Unspecified)
system.ruby.network.sankey.vcvn8.vcvn7              0                       (Unspecified)
system.ruby.network.sankey.vcvn8.vcvn8              0                       (Unspecified)
system.ruby.network.sankey.vcvn8.vcvn9              0                       (Unspecified)
system.ruby.network.sankey.vcvn9.vcvn0        2084608                       (Unspecified)
system.ruby.network.sankey.vcvn9.vcvn1         661441                       (Unspecified)
system.ruby.network.sankey.vcvn9.vcvn10         19333                       (Unspecified)
system.ruby.network.sankey.vcvn9.vcvn11         15202                       (Unspecified)
system.ruby.network.sankey.vcvn9.vcvn12             0                       (Unspecified)
system.ruby.network.sankey.vcvn9.vcvn13             0                       (Unspecified)
system.ruby.network.sankey.vcvn9.vcvn14             0                       (Unspecified)
system.ruby.network.sankey.vcvn9.vcvn15             0                       (Unspecified)
system.ruby.network.sankey.vcvn9.vcvn16             0                       (Unspecified)
system.ruby.network.sankey.vcvn9.vcvn17             0                       (Unspecified)
system.ruby.network.sankey.vcvn9.vcvn18             0                       (Unspecified)
system.ruby.network.sankey.vcvn9.vcvn19             0                       (Unspecified)
system.ruby.network.sankey.vcvn9.vcvn2         130385                       (Unspecified)
system.ruby.network.sankey.vcvn9.vcvn20             0                       (Unspecified)
system.ruby.network.sankey.vcvn9.vcvn21             0                       (Unspecified)
system.ruby.network.sankey.vcvn9.vcvn22             0                       (Unspecified)
system.ruby.network.sankey.vcvn9.vcvn23             0                       (Unspecified)
system.ruby.network.sankey.vcvn9.vcvn24             0                       (Unspecified)
system.ruby.network.sankey.vcvn9.vcvn25             0                       (Unspecified)
system.ruby.network.sankey.vcvn9.vcvn26             0                       (Unspecified)
system.ruby.network.sankey.vcvn9.vcvn27             0                       (Unspecified)
system.ruby.network.sankey.vcvn9.vcvn28             0                       (Unspecified)
system.ruby.network.sankey.vcvn9.vcvn29             0                       (Unspecified)
system.ruby.network.sankey.vcvn9.vcvn3          16100                       (Unspecified)
system.ruby.network.sankey.vcvn9.vcvn30             0                       (Unspecified)
system.ruby.network.sankey.vcvn9.vcvn31             0                       (Unspecified)
system.ruby.network.sankey.vcvn9.vcvn32             0                       (Unspecified)
system.ruby.network.sankey.vcvn9.vcvn33             0                       (Unspecified)
system.ruby.network.sankey.vcvn9.vcvn34             0                       (Unspecified)
system.ruby.network.sankey.vcvn9.vcvn35             0                       (Unspecified)
system.ruby.network.sankey.vcvn9.vcvn4           1081                       (Unspecified)
system.ruby.network.sankey.vcvn9.vcvn5              6                       (Unspecified)
system.ruby.network.sankey.vcvn9.vcvn6              0                       (Unspecified)
system.ruby.network.sankey.vcvn9.vcvn7              0                       (Unspecified)
system.ruby.network.sankey.vcvn9.vcvn8              0                       (Unspecified)
system.ruby.network.sankey.vcvn9.vcvn9              0                       (Unspecified)

---------- End Simulation Statistics   ----------
