
---------- Begin Simulation Statistics ----------
simSeconds                                   0.002147                       # Number of seconds simulated (Second)
simTicks                                   2147483750                       # Number of ticks simulated (Tick)
finalTick                                  2147483750                       # Number of ticks from beginning of simulation (restored from checkpoints and never reset) (Tick)
simFreq                                  1000000000000                       # The number of ticks per simulated second ((Tick/Second))
hostSeconds                                  19127.07                       # Real time elapsed on the host (Second)
hostTickRate                                   112275                       # The number of ticks simulated per host second (ticks/s) ((Tick/Second))
hostMemory                                   26742072                       # Number of bytes of host memory used (Byte)
system.clk_domain.clock                           250                       # Clock period in ticks (Tick)
system.cpu0.power_state.pwrStateResidencyTicks::UNDEFINED   2147483750                       # Cumulative time (in ticks) in various power states (Tick)
system.cpu1.power_state.pwrStateResidencyTicks::UNDEFINED   2147483750                       # Cumulative time (in ticks) in various power states (Tick)
system.cpu10.power_state.pwrStateResidencyTicks::UNDEFINED   2147483750                       # Cumulative time (in ticks) in various power states (Tick)
system.cpu11.power_state.pwrStateResidencyTicks::UNDEFINED   2147483750                       # Cumulative time (in ticks) in various power states (Tick)
system.cpu12.power_state.pwrStateResidencyTicks::UNDEFINED   2147483750                       # Cumulative time (in ticks) in various power states (Tick)
system.cpu13.power_state.pwrStateResidencyTicks::UNDEFINED   2147483750                       # Cumulative time (in ticks) in various power states (Tick)
system.cpu14.power_state.pwrStateResidencyTicks::UNDEFINED   2147483750                       # Cumulative time (in ticks) in various power states (Tick)
system.cpu15.power_state.pwrStateResidencyTicks::UNDEFINED   2147483750                       # Cumulative time (in ticks) in various power states (Tick)
system.cpu16.power_state.pwrStateResidencyTicks::UNDEFINED   2147483750                       # Cumulative time (in ticks) in various power states (Tick)
system.cpu17.power_state.pwrStateResidencyTicks::UNDEFINED   2147483750                       # Cumulative time (in ticks) in various power states (Tick)
system.cpu18.power_state.pwrStateResidencyTicks::UNDEFINED   2147483750                       # Cumulative time (in ticks) in various power states (Tick)
system.cpu19.power_state.pwrStateResidencyTicks::UNDEFINED   2147483750                       # Cumulative time (in ticks) in various power states (Tick)
system.cpu2.power_state.pwrStateResidencyTicks::UNDEFINED   2147483750                       # Cumulative time (in ticks) in various power states (Tick)
system.cpu20.power_state.pwrStateResidencyTicks::UNDEFINED   2147483750                       # Cumulative time (in ticks) in various power states (Tick)
system.cpu21.power_state.pwrStateResidencyTicks::UNDEFINED   2147483750                       # Cumulative time (in ticks) in various power states (Tick)
system.cpu22.power_state.pwrStateResidencyTicks::UNDEFINED   2147483750                       # Cumulative time (in ticks) in various power states (Tick)
system.cpu23.power_state.pwrStateResidencyTicks::UNDEFINED   2147483750                       # Cumulative time (in ticks) in various power states (Tick)
system.cpu24.power_state.pwrStateResidencyTicks::UNDEFINED   2147483750                       # Cumulative time (in ticks) in various power states (Tick)
system.cpu25.power_state.pwrStateResidencyTicks::UNDEFINED   2147483750                       # Cumulative time (in ticks) in various power states (Tick)
system.cpu26.power_state.pwrStateResidencyTicks::UNDEFINED   2147483750                       # Cumulative time (in ticks) in various power states (Tick)
system.cpu27.power_state.pwrStateResidencyTicks::UNDEFINED   2147483750                       # Cumulative time (in ticks) in various power states (Tick)
system.cpu28.power_state.pwrStateResidencyTicks::UNDEFINED   2147483750                       # Cumulative time (in ticks) in various power states (Tick)
system.cpu29.power_state.pwrStateResidencyTicks::UNDEFINED   2147483750                       # Cumulative time (in ticks) in various power states (Tick)
system.cpu3.power_state.pwrStateResidencyTicks::UNDEFINED   2147483750                       # Cumulative time (in ticks) in various power states (Tick)
system.cpu30.power_state.pwrStateResidencyTicks::UNDEFINED   2147483750                       # Cumulative time (in ticks) in various power states (Tick)
system.cpu31.power_state.pwrStateResidencyTicks::UNDEFINED   2147483750                       # Cumulative time (in ticks) in various power states (Tick)
system.cpu32.power_state.pwrStateResidencyTicks::UNDEFINED   2147483750                       # Cumulative time (in ticks) in various power states (Tick)
system.cpu33.power_state.pwrStateResidencyTicks::UNDEFINED   2147483750                       # Cumulative time (in ticks) in various power states (Tick)
system.cpu34.power_state.pwrStateResidencyTicks::UNDEFINED   2147483750                       # Cumulative time (in ticks) in various power states (Tick)
system.cpu35.power_state.pwrStateResidencyTicks::UNDEFINED   2147483750                       # Cumulative time (in ticks) in various power states (Tick)
system.cpu36.power_state.pwrStateResidencyTicks::UNDEFINED   2147483750                       # Cumulative time (in ticks) in various power states (Tick)
system.cpu37.power_state.pwrStateResidencyTicks::UNDEFINED   2147483750                       # Cumulative time (in ticks) in various power states (Tick)
system.cpu38.power_state.pwrStateResidencyTicks::UNDEFINED   2147483750                       # Cumulative time (in ticks) in various power states (Tick)
system.cpu39.power_state.pwrStateResidencyTicks::UNDEFINED   2147483750                       # Cumulative time (in ticks) in various power states (Tick)
system.cpu4.power_state.pwrStateResidencyTicks::UNDEFINED   2147483750                       # Cumulative time (in ticks) in various power states (Tick)
system.cpu40.power_state.pwrStateResidencyTicks::UNDEFINED   2147483750                       # Cumulative time (in ticks) in various power states (Tick)
system.cpu41.power_state.pwrStateResidencyTicks::UNDEFINED   2147483750                       # Cumulative time (in ticks) in various power states (Tick)
system.cpu42.power_state.pwrStateResidencyTicks::UNDEFINED   2147483750                       # Cumulative time (in ticks) in various power states (Tick)
system.cpu43.power_state.pwrStateResidencyTicks::UNDEFINED   2147483750                       # Cumulative time (in ticks) in various power states (Tick)
system.cpu44.power_state.pwrStateResidencyTicks::UNDEFINED   2147483750                       # Cumulative time (in ticks) in various power states (Tick)
system.cpu45.power_state.pwrStateResidencyTicks::UNDEFINED   2147483750                       # Cumulative time (in ticks) in various power states (Tick)
system.cpu46.power_state.pwrStateResidencyTicks::UNDEFINED   2147483750                       # Cumulative time (in ticks) in various power states (Tick)
system.cpu47.power_state.pwrStateResidencyTicks::UNDEFINED   2147483750                       # Cumulative time (in ticks) in various power states (Tick)
system.cpu48.power_state.pwrStateResidencyTicks::UNDEFINED   2147483750                       # Cumulative time (in ticks) in various power states (Tick)
system.cpu49.power_state.pwrStateResidencyTicks::UNDEFINED   2147483750                       # Cumulative time (in ticks) in various power states (Tick)
system.cpu5.power_state.pwrStateResidencyTicks::UNDEFINED   2147483750                       # Cumulative time (in ticks) in various power states (Tick)
system.cpu50.power_state.pwrStateResidencyTicks::UNDEFINED   2147483750                       # Cumulative time (in ticks) in various power states (Tick)
system.cpu51.power_state.pwrStateResidencyTicks::UNDEFINED   2147483750                       # Cumulative time (in ticks) in various power states (Tick)
system.cpu52.power_state.pwrStateResidencyTicks::UNDEFINED   2147483750                       # Cumulative time (in ticks) in various power states (Tick)
system.cpu53.power_state.pwrStateResidencyTicks::UNDEFINED   2147483750                       # Cumulative time (in ticks) in various power states (Tick)
system.cpu54.power_state.pwrStateResidencyTicks::UNDEFINED   2147483750                       # Cumulative time (in ticks) in various power states (Tick)
system.cpu55.power_state.pwrStateResidencyTicks::UNDEFINED   2147483750                       # Cumulative time (in ticks) in various power states (Tick)
system.cpu56.power_state.pwrStateResidencyTicks::UNDEFINED   2147483750                       # Cumulative time (in ticks) in various power states (Tick)
system.cpu57.power_state.pwrStateResidencyTicks::UNDEFINED   2147483750                       # Cumulative time (in ticks) in various power states (Tick)
system.cpu58.power_state.pwrStateResidencyTicks::UNDEFINED   2147483750                       # Cumulative time (in ticks) in various power states (Tick)
system.cpu59.power_state.pwrStateResidencyTicks::UNDEFINED   2147483750                       # Cumulative time (in ticks) in various power states (Tick)
system.cpu6.power_state.pwrStateResidencyTicks::UNDEFINED   2147483750                       # Cumulative time (in ticks) in various power states (Tick)
system.cpu60.power_state.pwrStateResidencyTicks::UNDEFINED   2147483750                       # Cumulative time (in ticks) in various power states (Tick)
system.cpu61.power_state.pwrStateResidencyTicks::UNDEFINED   2147483750                       # Cumulative time (in ticks) in various power states (Tick)
system.cpu62.power_state.pwrStateResidencyTicks::UNDEFINED   2147483750                       # Cumulative time (in ticks) in various power states (Tick)
system.cpu63.power_state.pwrStateResidencyTicks::UNDEFINED   2147483750                       # Cumulative time (in ticks) in various power states (Tick)
system.cpu7.power_state.pwrStateResidencyTicks::UNDEFINED   2147483750                       # Cumulative time (in ticks) in various power states (Tick)
system.cpu8.power_state.pwrStateResidencyTicks::UNDEFINED   2147483750                       # Cumulative time (in ticks) in various power states (Tick)
system.cpu9.power_state.pwrStateResidencyTicks::UNDEFINED   2147483750                       # Cumulative time (in ticks) in various power states (Tick)
system.mem_ctrls0.power_state.pwrStateResidencyTicks::UNDEFINED   2147483750                       # Cumulative time (in ticks) in various power states (Tick)
system.mem_ctrls1.power_state.pwrStateResidencyTicks::UNDEFINED   2147483750                       # Cumulative time (in ticks) in various power states (Tick)
system.mem_ctrls10.power_state.pwrStateResidencyTicks::UNDEFINED   2147483750                       # Cumulative time (in ticks) in various power states (Tick)
system.mem_ctrls11.power_state.pwrStateResidencyTicks::UNDEFINED   2147483750                       # Cumulative time (in ticks) in various power states (Tick)
system.mem_ctrls12.power_state.pwrStateResidencyTicks::UNDEFINED   2147483750                       # Cumulative time (in ticks) in various power states (Tick)
system.mem_ctrls13.power_state.pwrStateResidencyTicks::UNDEFINED   2147483750                       # Cumulative time (in ticks) in various power states (Tick)
system.mem_ctrls14.power_state.pwrStateResidencyTicks::UNDEFINED   2147483750                       # Cumulative time (in ticks) in various power states (Tick)
system.mem_ctrls15.power_state.pwrStateResidencyTicks::UNDEFINED   2147483750                       # Cumulative time (in ticks) in various power states (Tick)
system.mem_ctrls16.power_state.pwrStateResidencyTicks::UNDEFINED   2147483750                       # Cumulative time (in ticks) in various power states (Tick)
system.mem_ctrls17.power_state.pwrStateResidencyTicks::UNDEFINED   2147483750                       # Cumulative time (in ticks) in various power states (Tick)
system.mem_ctrls18.power_state.pwrStateResidencyTicks::UNDEFINED   2147483750                       # Cumulative time (in ticks) in various power states (Tick)
system.mem_ctrls19.power_state.pwrStateResidencyTicks::UNDEFINED   2147483750                       # Cumulative time (in ticks) in various power states (Tick)
system.mem_ctrls2.power_state.pwrStateResidencyTicks::UNDEFINED   2147483750                       # Cumulative time (in ticks) in various power states (Tick)
system.mem_ctrls20.power_state.pwrStateResidencyTicks::UNDEFINED   2147483750                       # Cumulative time (in ticks) in various power states (Tick)
system.mem_ctrls21.power_state.pwrStateResidencyTicks::UNDEFINED   2147483750                       # Cumulative time (in ticks) in various power states (Tick)
system.mem_ctrls22.power_state.pwrStateResidencyTicks::UNDEFINED   2147483750                       # Cumulative time (in ticks) in various power states (Tick)
system.mem_ctrls23.power_state.pwrStateResidencyTicks::UNDEFINED   2147483750                       # Cumulative time (in ticks) in various power states (Tick)
system.mem_ctrls24.power_state.pwrStateResidencyTicks::UNDEFINED   2147483750                       # Cumulative time (in ticks) in various power states (Tick)
system.mem_ctrls25.power_state.pwrStateResidencyTicks::UNDEFINED   2147483750                       # Cumulative time (in ticks) in various power states (Tick)
system.mem_ctrls26.power_state.pwrStateResidencyTicks::UNDEFINED   2147483750                       # Cumulative time (in ticks) in various power states (Tick)
system.mem_ctrls27.power_state.pwrStateResidencyTicks::UNDEFINED   2147483750                       # Cumulative time (in ticks) in various power states (Tick)
system.mem_ctrls28.power_state.pwrStateResidencyTicks::UNDEFINED   2147483750                       # Cumulative time (in ticks) in various power states (Tick)
system.mem_ctrls29.power_state.pwrStateResidencyTicks::UNDEFINED   2147483750                       # Cumulative time (in ticks) in various power states (Tick)
system.mem_ctrls3.power_state.pwrStateResidencyTicks::UNDEFINED   2147483750                       # Cumulative time (in ticks) in various power states (Tick)
system.mem_ctrls30.power_state.pwrStateResidencyTicks::UNDEFINED   2147483750                       # Cumulative time (in ticks) in various power states (Tick)
system.mem_ctrls31.power_state.pwrStateResidencyTicks::UNDEFINED   2147483750                       # Cumulative time (in ticks) in various power states (Tick)
system.mem_ctrls32.power_state.pwrStateResidencyTicks::UNDEFINED   2147483750                       # Cumulative time (in ticks) in various power states (Tick)
system.mem_ctrls33.power_state.pwrStateResidencyTicks::UNDEFINED   2147483750                       # Cumulative time (in ticks) in various power states (Tick)
system.mem_ctrls34.power_state.pwrStateResidencyTicks::UNDEFINED   2147483750                       # Cumulative time (in ticks) in various power states (Tick)
system.mem_ctrls35.power_state.pwrStateResidencyTicks::UNDEFINED   2147483750                       # Cumulative time (in ticks) in various power states (Tick)
system.mem_ctrls36.power_state.pwrStateResidencyTicks::UNDEFINED   2147483750                       # Cumulative time (in ticks) in various power states (Tick)
system.mem_ctrls37.power_state.pwrStateResidencyTicks::UNDEFINED   2147483750                       # Cumulative time (in ticks) in various power states (Tick)
system.mem_ctrls38.power_state.pwrStateResidencyTicks::UNDEFINED   2147483750                       # Cumulative time (in ticks) in various power states (Tick)
system.mem_ctrls39.power_state.pwrStateResidencyTicks::UNDEFINED   2147483750                       # Cumulative time (in ticks) in various power states (Tick)
system.mem_ctrls4.power_state.pwrStateResidencyTicks::UNDEFINED   2147483750                       # Cumulative time (in ticks) in various power states (Tick)
system.mem_ctrls40.power_state.pwrStateResidencyTicks::UNDEFINED   2147483750                       # Cumulative time (in ticks) in various power states (Tick)
system.mem_ctrls41.power_state.pwrStateResidencyTicks::UNDEFINED   2147483750                       # Cumulative time (in ticks) in various power states (Tick)
system.mem_ctrls42.power_state.pwrStateResidencyTicks::UNDEFINED   2147483750                       # Cumulative time (in ticks) in various power states (Tick)
system.mem_ctrls43.power_state.pwrStateResidencyTicks::UNDEFINED   2147483750                       # Cumulative time (in ticks) in various power states (Tick)
system.mem_ctrls44.power_state.pwrStateResidencyTicks::UNDEFINED   2147483750                       # Cumulative time (in ticks) in various power states (Tick)
system.mem_ctrls45.power_state.pwrStateResidencyTicks::UNDEFINED   2147483750                       # Cumulative time (in ticks) in various power states (Tick)
system.mem_ctrls46.power_state.pwrStateResidencyTicks::UNDEFINED   2147483750                       # Cumulative time (in ticks) in various power states (Tick)
system.mem_ctrls47.power_state.pwrStateResidencyTicks::UNDEFINED   2147483750                       # Cumulative time (in ticks) in various power states (Tick)
system.mem_ctrls48.power_state.pwrStateResidencyTicks::UNDEFINED   2147483750                       # Cumulative time (in ticks) in various power states (Tick)
system.mem_ctrls49.power_state.pwrStateResidencyTicks::UNDEFINED   2147483750                       # Cumulative time (in ticks) in various power states (Tick)
system.mem_ctrls5.power_state.pwrStateResidencyTicks::UNDEFINED   2147483750                       # Cumulative time (in ticks) in various power states (Tick)
system.mem_ctrls50.power_state.pwrStateResidencyTicks::UNDEFINED   2147483750                       # Cumulative time (in ticks) in various power states (Tick)
system.mem_ctrls51.power_state.pwrStateResidencyTicks::UNDEFINED   2147483750                       # Cumulative time (in ticks) in various power states (Tick)
system.mem_ctrls52.power_state.pwrStateResidencyTicks::UNDEFINED   2147483750                       # Cumulative time (in ticks) in various power states (Tick)
system.mem_ctrls53.power_state.pwrStateResidencyTicks::UNDEFINED   2147483750                       # Cumulative time (in ticks) in various power states (Tick)
system.mem_ctrls54.power_state.pwrStateResidencyTicks::UNDEFINED   2147483750                       # Cumulative time (in ticks) in various power states (Tick)
system.mem_ctrls55.power_state.pwrStateResidencyTicks::UNDEFINED   2147483750                       # Cumulative time (in ticks) in various power states (Tick)
system.mem_ctrls56.power_state.pwrStateResidencyTicks::UNDEFINED   2147483750                       # Cumulative time (in ticks) in various power states (Tick)
system.mem_ctrls57.power_state.pwrStateResidencyTicks::UNDEFINED   2147483750                       # Cumulative time (in ticks) in various power states (Tick)
system.mem_ctrls58.power_state.pwrStateResidencyTicks::UNDEFINED   2147483750                       # Cumulative time (in ticks) in various power states (Tick)
system.mem_ctrls59.power_state.pwrStateResidencyTicks::UNDEFINED   2147483750                       # Cumulative time (in ticks) in various power states (Tick)
system.mem_ctrls6.power_state.pwrStateResidencyTicks::UNDEFINED   2147483750                       # Cumulative time (in ticks) in various power states (Tick)
system.mem_ctrls60.power_state.pwrStateResidencyTicks::UNDEFINED   2147483750                       # Cumulative time (in ticks) in various power states (Tick)
system.mem_ctrls61.power_state.pwrStateResidencyTicks::UNDEFINED   2147483750                       # Cumulative time (in ticks) in various power states (Tick)
system.mem_ctrls62.power_state.pwrStateResidencyTicks::UNDEFINED   2147483750                       # Cumulative time (in ticks) in various power states (Tick)
system.mem_ctrls63.power_state.pwrStateResidencyTicks::UNDEFINED   2147483750                       # Cumulative time (in ticks) in various power states (Tick)
system.mem_ctrls7.power_state.pwrStateResidencyTicks::UNDEFINED   2147483750                       # Cumulative time (in ticks) in various power states (Tick)
system.mem_ctrls8.power_state.pwrStateResidencyTicks::UNDEFINED   2147483750                       # Cumulative time (in ticks) in various power states (Tick)
system.mem_ctrls9.power_state.pwrStateResidencyTicks::UNDEFINED   2147483750                       # Cumulative time (in ticks) in various power states (Tick)
system.ruby.m_outstandReqHistSeqr::bucket_size            1                       (Unspecified)
system.ruby.m_outstandReqHistSeqr::max_bucket            9                       (Unspecified)
system.ruby.m_outstandReqHistSeqr::samples     76891628                       (Unspecified)
system.ruby.m_outstandReqHistSeqr::mean             1                       (Unspecified)
system.ruby.m_outstandReqHistSeqr::gmean            1                       (Unspecified)
system.ruby.m_outstandReqHistSeqr        |           0      0.00%      0.00% |    76891628    100.00%    100.00% |           0      0.00%    100.00% |           0      0.00%    100.00% |           0      0.00%    100.00% |           0      0.00%    100.00% |           0      0.00%    100.00% |           0      0.00%    100.00% |           0      0.00%    100.00% |           0      0.00%    100.00% (Unspecified)
system.ruby.m_outstandReqHistSeqr::total     76891628                       (Unspecified)
system.ruby.m_latencyHistSeqr::bucket_size            1                       (Unspecified)
system.ruby.m_latencyHistSeqr::max_bucket            9                       (Unspecified)
system.ruby.m_latencyHistSeqr::samples       76891616                       (Unspecified)
system.ruby.m_latencyHistSeqr::mean                 1                       (Unspecified)
system.ruby.m_latencyHistSeqr::gmean                1                       (Unspecified)
system.ruby.m_latencyHistSeqr            |           0      0.00%      0.00% |    76891616    100.00%    100.00% |           0      0.00%    100.00% |           0      0.00%    100.00% |           0      0.00%    100.00% |           0      0.00%    100.00% |           0      0.00%    100.00% |           0      0.00%    100.00% |           0      0.00%    100.00% |           0      0.00%    100.00% (Unspecified)
system.ruby.m_latencyHistSeqr::total         76891616                       (Unspecified)
system.ruby.m_hitLatencyHistSeqr::bucket_size            1                       (Unspecified)
system.ruby.m_hitLatencyHistSeqr::max_bucket            9                       (Unspecified)
system.ruby.m_hitLatencyHistSeqr::samples     76891616                       (Unspecified)
system.ruby.m_hitLatencyHistSeqr::mean              1                       (Unspecified)
system.ruby.m_hitLatencyHistSeqr::gmean             1                       (Unspecified)
system.ruby.m_hitLatencyHistSeqr         |           0      0.00%      0.00% |    76891616    100.00%    100.00% |           0      0.00%    100.00% |           0      0.00%    100.00% |           0      0.00%    100.00% |           0      0.00%    100.00% |           0      0.00%    100.00% |           0      0.00%    100.00% |           0      0.00%    100.00% |           0      0.00%    100.00% (Unspecified)
system.ruby.m_hitLatencyHistSeqr::total      76891616                       (Unspecified)
system.ruby.Directory_Controller.Receive_Request |      399928      1.56%      1.56% |      400816      1.56%      3.12% |      400324      1.56%      4.69% |      400917      1.56%      6.25% |      400475      1.56%      7.81% |      400165      1.56%      9.38% |      398888      1.56%     10.93% |      400405      1.56%     12.49% |      400850      1.56%     14.06% |      400652      1.56%     15.62% |      400849      1.56%     17.19% |      401266      1.57%     18.75% |      400845      1.56%     20.32% |      399607      1.56%     21.87% |      399904      1.56%     23.44% |      401263      1.57%     25.00% |      399616      1.56%     26.56% |      401237      1.57%     28.13% |      401126      1.57%     29.69% |      400390      1.56%     31.25% |      401077      1.57%     32.82% |      399629      1.56%     34.38% |      400340      1.56%     35.94% |      400155      1.56%     37.50% |      399711      1.56%     39.06% |      399491      1.56%     40.62% |      401302      1.57%     42.19% |      399167      1.56%     43.74% |      400808      1.56%     45.31% |      399772      1.56%     46.87% |      401852      1.57%     48.44% |      399455      1.56%     49.99% |      400148      1.56%     51.56% |      400809      1.56%     53.12% |      400899      1.56%     54.68% |      401216      1.57%     56.25% |      400755      1.56%     57.81% |      401270      1.57%     59.38% |      399792      1.56%     60.94% |      400858      1.56%     62.50% |      400298      1.56%     64.06% |      399688      1.56%     65.62% |      401348      1.57%     67.19% |      400407      1.56%     68.75% |      401122      1.57%     70.32% |      400751      1.56%     71.88% |      399685      1.56%     73.44% |      400876      1.56%     75.01% |      399566      1.56%     76.56% |      401563      1.57%     78.13% |      400789      1.56%     79.70% |      400202      1.56%     81.26% |      400167      1.56%     82.82% |      400800      1.56%     84.38% |      400470      1.56%     85.95% |      399630      1.56%     87.50% |      399789      1.56%     89.06% |      399378      1.56%     90.62% |      399934      1.56%     92.18% |      400552      1.56%     93.75% |      400522      1.56%     95.31% |      400929      1.56%     96.87% |      400455      1.56%     98.44% |      400778      1.56%    100.00% (Unspecified)
system.ruby.Directory_Controller.Receive_Request::total     25627728                       (Unspecified)
system.ruby.Directory_Controller.Receive_Forward |      400974      1.56%      1.56% |      400296      1.56%      3.13% |      401027      1.56%      4.69% |      400427      1.56%      6.25% |      401105      1.56%      7.82% |      399433      1.56%      9.38% |      400107      1.56%     10.94% |      399948      1.56%     12.50% |      401606      1.57%     14.06% |      400424      1.56%     15.63% |      401119      1.56%     17.19% |      400079      1.56%     18.75% |      398791      1.56%     20.31% |      401884      1.57%     21.88% |      400315      1.56%     23.44% |      400796      1.56%     25.00% |      401225      1.57%     26.57% |      401032      1.56%     28.13% |      400266      1.56%     29.69% |      400663      1.56%     31.26% |      400674      1.56%     32.82% |      400861      1.56%     34.38% |      399184      1.56%     35.94% |      400829      1.56%     37.51% |      401111      1.56%     39.07% |      400237      1.56%     40.63% |      400169      1.56%     42.19% |      399682      1.56%     43.75% |      399572      1.56%     45.31% |      400243      1.56%     46.87% |      400784      1.56%     48.44% |      400410      1.56%     50.00% |      400203      1.56%     51.56% |      400176      1.56%     53.12% |      400917      1.56%     54.69% |      400151      1.56%     56.25% |      400026      1.56%     57.81% |      401851      1.57%     59.38% |      401826      1.57%     60.94% |      400478      1.56%     62.51% |      400950      1.56%     64.07% |      400347      1.56%     65.63% |      400815      1.56%     67.20% |      399705      1.56%     68.76% |      400040      1.56%     70.32% |      401244      1.57%     71.88% |      400111      1.56%     73.44% |      399766      1.56%     75.00% |      400035      1.56%     76.56% |      400803      1.56%     78.13% |      399392      1.56%     79.69% |      401139      1.57%     81.25% |      399863      1.56%     82.81% |      400979      1.56%     84.38% |      400095      1.56%     85.94% |      399975      1.56%     87.50% |      400596      1.56%     89.06% |      399714      1.56%     90.62% |      401310      1.57%     92.19% |      400078      1.56%     93.75% |      400580      1.56%     95.31% |      402019      1.57%     96.88% |      400550      1.56%     98.44% |      399680      1.56%    100.00% (Unspecified)
system.ruby.Directory_Controller.Receive_Forward::total     25630687                       (Unspecified)
system.ruby.Directory_Controller.Receive_Response |      176968      1.56%      1.56% |      177307      1.56%      3.12% |      177023      1.56%      4.68% |      177271      1.56%      6.24% |      177590      1.56%      7.80% |      177557      1.56%      9.36% |      176713      1.56%     10.92% |      177522      1.56%     12.48% |      176872      1.56%     14.03% |      178101      1.57%     15.60% |      177633      1.56%     17.16% |      177798      1.56%     18.73% |      177544      1.56%     20.29% |      177904      1.57%     21.86% |      177559      1.56%     23.42% |      177204      1.56%     24.98% |      177520      1.56%     26.54% |      176977      1.56%     28.10% |      177985      1.57%     29.66% |      176685      1.55%     31.22% |      177689      1.56%     32.78% |      177623      1.56%     34.35% |      177363      1.56%     35.91% |      178320      1.57%     37.48% |      177475      1.56%     39.04% |      177760      1.56%     40.60% |      177349      1.56%     42.16% |      177086      1.56%     43.72% |      177692      1.56%     45.28% |      177846      1.56%     46.85% |      177245      1.56%     48.41% |      177433      1.56%     49.97% |      178433      1.57%     51.54% |      176858      1.56%     53.10% |      177540      1.56%     54.66% |      178248      1.57%     56.23% |      177806      1.56%     57.79% |      177457      1.56%     59.35% |      177741      1.56%     60.92% |      177797      1.56%     62.48% |      178338      1.57%     64.05% |      177929      1.57%     65.62% |      177800      1.56%     67.18% |      176912      1.56%     68.74% |      177798      1.56%     70.30% |      177755      1.56%     71.87% |      177764      1.56%     73.43% |      177427      1.56%     74.99% |      177209      1.56%     76.55% |      177725      1.56%     78.12% |      176808      1.56%     79.67% |      177278      1.56%     81.23% |      177546      1.56%     82.79% |      177778      1.56%     84.36% |      178072      1.57%     85.93% |      177935      1.57%     87.49% |      177065      1.56%     89.05% |      177902      1.57%     90.61% |      178046      1.57%     92.18% |      178078      1.57%     93.75% |      177545      1.56%     95.31% |      177111      1.56%     96.87% |      177666      1.56%     98.43% |      178076      1.57%    100.00% (Unspecified)
system.ruby.Directory_Controller.Receive_Response::total     11364057                       (Unspecified)
system.ruby.Directory_Controller.I.Receive_Request |      399928      1.56%      1.56% |      400816      1.56%      3.12% |      400324      1.56%      4.69% |      400917      1.56%      6.25% |      400475      1.56%      7.81% |      400165      1.56%      9.38% |      398888      1.56%     10.93% |      400405      1.56%     12.49% |      400850      1.56%     14.06% |      400652      1.56%     15.62% |      400849      1.56%     17.19% |      401266      1.57%     18.75% |      400845      1.56%     20.32% |      399607      1.56%     21.87% |      399904      1.56%     23.44% |      401263      1.57%     25.00% |      399616      1.56%     26.56% |      401237      1.57%     28.13% |      401126      1.57%     29.69% |      400390      1.56%     31.25% |      401077      1.57%     32.82% |      399629      1.56%     34.38% |      400340      1.56%     35.94% |      400155      1.56%     37.50% |      399711      1.56%     39.06% |      399491      1.56%     40.62% |      401302      1.57%     42.19% |      399167      1.56%     43.74% |      400808      1.56%     45.31% |      399772      1.56%     46.87% |      401852      1.57%     48.44% |      399455      1.56%     49.99% |      400148      1.56%     51.56% |      400809      1.56%     53.12% |      400899      1.56%     54.68% |      401216      1.57%     56.25% |      400755      1.56%     57.81% |      401270      1.57%     59.38% |      399792      1.56%     60.94% |      400858      1.56%     62.50% |      400298      1.56%     64.06% |      399688      1.56%     65.62% |      401348      1.57%     67.19% |      400407      1.56%     68.75% |      401122      1.57%     70.32% |      400751      1.56%     71.88% |      399685      1.56%     73.44% |      400876      1.56%     75.01% |      399566      1.56%     76.56% |      401563      1.57%     78.13% |      400789      1.56%     79.70% |      400202      1.56%     81.26% |      400167      1.56%     82.82% |      400800      1.56%     84.38% |      400470      1.56%     85.95% |      399630      1.56%     87.50% |      399789      1.56%     89.06% |      399378      1.56%     90.62% |      399934      1.56%     92.18% |      400552      1.56%     93.75% |      400522      1.56%     95.31% |      400929      1.56%     96.87% |      400455      1.56%     98.44% |      400778      1.56%    100.00% (Unspecified)
system.ruby.Directory_Controller.I.Receive_Request::total     25627728                       (Unspecified)
system.ruby.Directory_Controller.I.Receive_Forward |      400974      1.56%      1.56% |      400296      1.56%      3.13% |      401027      1.56%      4.69% |      400427      1.56%      6.25% |      401105      1.56%      7.82% |      399433      1.56%      9.38% |      400107      1.56%     10.94% |      399948      1.56%     12.50% |      401606      1.57%     14.06% |      400424      1.56%     15.63% |      401119      1.56%     17.19% |      400079      1.56%     18.75% |      398791      1.56%     20.31% |      401884      1.57%     21.88% |      400315      1.56%     23.44% |      400796      1.56%     25.00% |      401225      1.57%     26.57% |      401032      1.56%     28.13% |      400266      1.56%     29.69% |      400663      1.56%     31.26% |      400674      1.56%     32.82% |      400861      1.56%     34.38% |      399184      1.56%     35.94% |      400829      1.56%     37.51% |      401111      1.56%     39.07% |      400237      1.56%     40.63% |      400169      1.56%     42.19% |      399682      1.56%     43.75% |      399572      1.56%     45.31% |      400243      1.56%     46.87% |      400784      1.56%     48.44% |      400410      1.56%     50.00% |      400203      1.56%     51.56% |      400176      1.56%     53.12% |      400917      1.56%     54.69% |      400151      1.56%     56.25% |      400026      1.56%     57.81% |      401851      1.57%     59.38% |      401826      1.57%     60.94% |      400478      1.56%     62.51% |      400950      1.56%     64.07% |      400347      1.56%     65.63% |      400815      1.56%     67.20% |      399705      1.56%     68.76% |      400040      1.56%     70.32% |      401244      1.57%     71.88% |      400111      1.56%     73.44% |      399766      1.56%     75.00% |      400035      1.56%     76.56% |      400803      1.56%     78.13% |      399392      1.56%     79.69% |      401139      1.57%     81.25% |      399863      1.56%     82.81% |      400979      1.56%     84.38% |      400095      1.56%     85.94% |      399975      1.56%     87.50% |      400596      1.56%     89.06% |      399714      1.56%     90.62% |      401310      1.57%     92.19% |      400078      1.56%     93.75% |      400580      1.56%     95.31% |      402019      1.57%     96.88% |      400550      1.56%     98.44% |      399680      1.56%    100.00% (Unspecified)
system.ruby.Directory_Controller.I.Receive_Forward::total     25630687                       (Unspecified)
system.ruby.Directory_Controller.I.Receive_Response |      176968      1.56%      1.56% |      177307      1.56%      3.12% |      177023      1.56%      4.68% |      177271      1.56%      6.24% |      177590      1.56%      7.80% |      177557      1.56%      9.36% |      176713      1.56%     10.92% |      177522      1.56%     12.48% |      176872      1.56%     14.03% |      178101      1.57%     15.60% |      177633      1.56%     17.16% |      177798      1.56%     18.73% |      177544      1.56%     20.29% |      177904      1.57%     21.86% |      177559      1.56%     23.42% |      177204      1.56%     24.98% |      177520      1.56%     26.54% |      176977      1.56%     28.10% |      177985      1.57%     29.66% |      176685      1.55%     31.22% |      177689      1.56%     32.78% |      177623      1.56%     34.35% |      177363      1.56%     35.91% |      178320      1.57%     37.48% |      177475      1.56%     39.04% |      177760      1.56%     40.60% |      177349      1.56%     42.16% |      177086      1.56%     43.72% |      177692      1.56%     45.28% |      177846      1.56%     46.85% |      177245      1.56%     48.41% |      177433      1.56%     49.97% |      178433      1.57%     51.54% |      176858      1.56%     53.10% |      177540      1.56%     54.66% |      178248      1.57%     56.23% |      177806      1.56%     57.79% |      177457      1.56%     59.35% |      177741      1.56%     60.92% |      177797      1.56%     62.48% |      178338      1.57%     64.05% |      177929      1.57%     65.62% |      177800      1.56%     67.18% |      176912      1.56%     68.74% |      177798      1.56%     70.30% |      177755      1.56%     71.87% |      177764      1.56%     73.43% |      177427      1.56%     74.99% |      177209      1.56%     76.55% |      177725      1.56%     78.12% |      176808      1.56%     79.67% |      177278      1.56%     81.23% |      177546      1.56%     82.79% |      177778      1.56%     84.36% |      178072      1.57%     85.93% |      177935      1.57%     87.49% |      177065      1.56%     89.05% |      177902      1.57%     90.61% |      178046      1.57%     92.18% |      178078      1.57%     93.75% |      177545      1.56%     95.31% |      177111      1.56%     96.87% |      177666      1.56%     98.43% |      178076      1.57%    100.00% (Unspecified)
system.ruby.Directory_Controller.I.Receive_Response::total     11364057                       (Unspecified)
system.ruby.L1Cache_Controller.Request   |      400252      1.56%      1.56% |      400056      1.56%      3.12% |      399771      1.56%      4.68% |      401148      1.57%      6.25% |      400537      1.56%      7.81% |      401096      1.57%      9.38% |      400993      1.56%     10.94% |      400406      1.56%     12.50% |      399735      1.56%     14.06% |      400158      1.56%     15.62% |      400878      1.56%     17.19% |      400094      1.56%     18.75% |      400700      1.56%     20.31% |      400856      1.56%     21.88% |      399556      1.56%     23.44% |      400271      1.56%     25.00% |      401432      1.57%     26.56% |      401100      1.57%     28.13% |      400521      1.56%     29.69% |      400610      1.56%     31.26% |      400167      1.56%     32.82% |      401125      1.57%     34.38% |      400353      1.56%     35.94% |      398861      1.56%     37.50% |      400392      1.56%     39.06% |      400297      1.56%     40.63% |      399891      1.56%     42.19% |      399131      1.56%     43.74% |      399643      1.56%     45.30% |      401591      1.57%     46.87% |      399446      1.56%     48.43% |      400968      1.56%     49.99% |      400584      1.56%     51.56% |      400322      1.56%     53.12% |      400177      1.56%     54.68% |      399353      1.56%     56.24% |      400647      1.56%     57.80% |      399663      1.56%     59.36% |      399661      1.56%     60.92% |      400722      1.56%     62.48% |      401707      1.57%     64.05% |      400228      1.56%     65.61% |      401058      1.56%     67.18% |      400813      1.56%     68.74% |      400511      1.56%     70.30% |      401135      1.57%     71.87% |      400213      1.56%     73.43% |      400765      1.56%     74.99% |      400792      1.56%     76.56% |      401286      1.57%     78.12% |      400704      1.56%     79.69% |      400495      1.56%     81.25% |      400698      1.56%     82.81% |      400670      1.56%     84.38% |      399684      1.56%     85.94% |      399560      1.56%     87.50% |      400803      1.56%     89.06% |      400338      1.56%     90.62% |      400436      1.56%     92.19% |      400943      1.56%     93.75% |      400505      1.56%     95.31% |      400418      1.56%     96.87% |      400578      1.56%     98.44% |      400341      1.56%    100.00% (Unspecified)
system.ruby.L1Cache_Controller.Request::total     25627845                       (Unspecified)
system.ruby.L1Cache_Controller.Forward   |      399946      1.56%      1.56% |      399790      1.56%      3.12% |      400580      1.56%      4.68% |      401106      1.56%      6.25% |      400857      1.56%      7.81% |      399356      1.56%      9.37% |      399874      1.56%     10.93% |      400549      1.56%     12.49% |      401257      1.57%     14.06% |      401766      1.57%     15.63% |      400541      1.56%     17.19% |      400275      1.56%     18.75% |      401057      1.56%     20.32% |      400598      1.56%     21.88% |      400584      1.56%     23.44% |      401242      1.57%     25.01% |      400415      1.56%     26.57% |      400110      1.56%     28.13% |      401112      1.56%     29.69% |      400518      1.56%     31.26% |      399662      1.56%     32.82% |      400002      1.56%     34.38% |      399146      1.56%     35.93% |      401376      1.57%     37.50% |      399160      1.56%     39.06% |      400229      1.56%     40.62% |      399290      1.56%     42.18% |      400506      1.56%     43.74% |      400682      1.56%     45.30% |      399691      1.56%     46.86% |      399325      1.56%     48.42% |      400960      1.56%     49.98% |      400713      1.56%     51.55% |      399561      1.56%     53.11% |      401170      1.57%     54.67% |      399605      1.56%     56.23% |      400805      1.56%     57.80% |      400343      1.56%     59.36% |      400086      1.56%     60.92% |      400571      1.56%     62.48% |      399951      1.56%     64.04% |      401643      1.57%     65.61% |      401224      1.57%     67.17% |      401364      1.57%     68.74% |      400397      1.56%     70.30% |      400307      1.56%     71.86% |      400671      1.56%     73.43% |      400850      1.56%     74.99% |      400161      1.56%     76.55% |      400178      1.56%     78.11% |      399705      1.56%     79.67% |      399698      1.56%     81.23% |      401343      1.57%     82.80% |      400112      1.56%     84.36% |      400075      1.56%     85.92% |      401522      1.57%     87.49% |      400376      1.56%     89.05% |      400809      1.56%     90.61% |      400863      1.56%     92.18% |      400510      1.56%     93.74% |      401029      1.56%     95.30% |      400638      1.56%     96.87% |      401642      1.57%     98.43% |      401335      1.57%    100.00% (Unspecified)
system.ruby.L1Cache_Controller.Forward::total     25630819                       (Unspecified)
system.ruby.L1Cache_Controller.Response  |      400032      1.56%      1.56% |      399803      1.56%      3.12% |      400020      1.56%      4.68% |      399322      1.56%      6.24% |      401114      1.56%      7.80% |      400436      1.56%      9.37% |      400451      1.56%     10.93% |      401293      1.57%     12.49% |      399538      1.56%     14.05% |      399339      1.56%     15.61% |      400531      1.56%     17.17% |      400463      1.56%     18.74% |      400423      1.56%     20.30% |      399661      1.56%     21.86% |      400912      1.56%     23.42% |      399693      1.56%     24.98% |      400704      1.56%     26.54% |      401018      1.56%     28.11% |      401576      1.57%     29.67% |      400746      1.56%     31.24% |      400188      1.56%     32.80% |      400896      1.56%     34.36% |      400538      1.56%     35.93% |      400486      1.56%     37.49% |      400578      1.56%     39.05% |      400778      1.56%     40.61% |      400822      1.56%     42.18% |      401125      1.56%     43.74% |      400758      1.56%     45.31% |      400680      1.56%     46.87% |      401728      1.57%     48.44% |      399715      1.56%     50.00% |      399966      1.56%     51.56% |      400835      1.56%     53.12% |      400820      1.56%     54.68% |      401131      1.56%     56.25% |      401105      1.56%     57.81% |      401240      1.57%     59.38% |      400723      1.56%     60.94% |      400233      1.56%     62.50% |      400410      1.56%     64.07% |      400934      1.56%     65.63% |      399999      1.56%     67.19% |      400739      1.56%     68.75% |      400650      1.56%     70.32% |      401452      1.57%     71.88% |      400635      1.56%     73.45% |      399772      1.56%     75.01% |      399910      1.56%     76.57% |      400046      1.56%     78.13% |      399932      1.56%     79.69% |      400669      1.56%     81.25% |      400928      1.56%     82.81% |      399735      1.56%     84.37% |      400282      1.56%     85.93% |      400045      1.56%     87.50% |      400154      1.56%     89.06% |      399524      1.56%     90.61% |      400559      1.56%     92.18% |      401265      1.57%     93.74% |      400517      1.56%     95.31% |      400044      1.56%     96.87% |      402112      1.57%     98.43% |      401219      1.57%    100.00% (Unspecified)
system.ruby.L1Cache_Controller.Response::total     25632952                       (Unspecified)
system.ruby.L1Cache_Controller.I.Request |      400252      1.56%      1.56% |      400056      1.56%      3.12% |      399771      1.56%      4.68% |      401148      1.57%      6.25% |      400537      1.56%      7.81% |      401096      1.57%      9.38% |      400993      1.56%     10.94% |      400406      1.56%     12.50% |      399735      1.56%     14.06% |      400158      1.56%     15.62% |      400878      1.56%     17.19% |      400094      1.56%     18.75% |      400700      1.56%     20.31% |      400856      1.56%     21.88% |      399556      1.56%     23.44% |      400271      1.56%     25.00% |      401432      1.57%     26.56% |      401100      1.57%     28.13% |      400521      1.56%     29.69% |      400610      1.56%     31.26% |      400167      1.56%     32.82% |      401125      1.57%     34.38% |      400353      1.56%     35.94% |      398861      1.56%     37.50% |      400392      1.56%     39.06% |      400297      1.56%     40.63% |      399891      1.56%     42.19% |      399131      1.56%     43.74% |      399643      1.56%     45.30% |      401591      1.57%     46.87% |      399446      1.56%     48.43% |      400968      1.56%     49.99% |      400584      1.56%     51.56% |      400322      1.56%     53.12% |      400177      1.56%     54.68% |      399353      1.56%     56.24% |      400647      1.56%     57.80% |      399663      1.56%     59.36% |      399661      1.56%     60.92% |      400722      1.56%     62.48% |      401707      1.57%     64.05% |      400228      1.56%     65.61% |      401058      1.56%     67.18% |      400813      1.56%     68.74% |      400511      1.56%     70.30% |      401135      1.57%     71.87% |      400213      1.56%     73.43% |      400765      1.56%     74.99% |      400792      1.56%     76.56% |      401286      1.57%     78.12% |      400704      1.56%     79.69% |      400495      1.56%     81.25% |      400698      1.56%     82.81% |      400670      1.56%     84.38% |      399684      1.56%     85.94% |      399560      1.56%     87.50% |      400803      1.56%     89.06% |      400338      1.56%     90.62% |      400436      1.56%     92.19% |      400943      1.56%     93.75% |      400505      1.56%     95.31% |      400418      1.56%     96.87% |      400578      1.56%     98.44% |      400341      1.56%    100.00% (Unspecified)
system.ruby.L1Cache_Controller.I.Request::total     25627845                       (Unspecified)
system.ruby.L1Cache_Controller.I.Forward |      399946      1.56%      1.56% |      399790      1.56%      3.12% |      400580      1.56%      4.68% |      401106      1.56%      6.25% |      400857      1.56%      7.81% |      399356      1.56%      9.37% |      399874      1.56%     10.93% |      400549      1.56%     12.49% |      401257      1.57%     14.06% |      401766      1.57%     15.63% |      400541      1.56%     17.19% |      400275      1.56%     18.75% |      401057      1.56%     20.32% |      400598      1.56%     21.88% |      400584      1.56%     23.44% |      401242      1.57%     25.01% |      400415      1.56%     26.57% |      400110      1.56%     28.13% |      401112      1.56%     29.69% |      400518      1.56%     31.26% |      399662      1.56%     32.82% |      400002      1.56%     34.38% |      399146      1.56%     35.93% |      401376      1.57%     37.50% |      399160      1.56%     39.06% |      400229      1.56%     40.62% |      399290      1.56%     42.18% |      400506      1.56%     43.74% |      400682      1.56%     45.30% |      399691      1.56%     46.86% |      399325      1.56%     48.42% |      400960      1.56%     49.98% |      400713      1.56%     51.55% |      399561      1.56%     53.11% |      401170      1.57%     54.67% |      399605      1.56%     56.23% |      400805      1.56%     57.80% |      400343      1.56%     59.36% |      400086      1.56%     60.92% |      400571      1.56%     62.48% |      399951      1.56%     64.04% |      401643      1.57%     65.61% |      401224      1.57%     67.17% |      401364      1.57%     68.74% |      400397      1.56%     70.30% |      400307      1.56%     71.86% |      400671      1.56%     73.43% |      400850      1.56%     74.99% |      400161      1.56%     76.55% |      400178      1.56%     78.11% |      399705      1.56%     79.67% |      399698      1.56%     81.23% |      401343      1.57%     82.80% |      400112      1.56%     84.36% |      400075      1.56%     85.92% |      401522      1.57%     87.49% |      400376      1.56%     89.05% |      400809      1.56%     90.61% |      400863      1.56%     92.18% |      400510      1.56%     93.74% |      401029      1.56%     95.30% |      400638      1.56%     96.87% |      401642      1.57%     98.43% |      401335      1.57%    100.00% (Unspecified)
system.ruby.L1Cache_Controller.I.Forward::total     25630819                       (Unspecified)
system.ruby.L1Cache_Controller.I.Response |      400032      1.56%      1.56% |      399803      1.56%      3.12% |      400020      1.56%      4.68% |      399322      1.56%      6.24% |      401114      1.56%      7.80% |      400436      1.56%      9.37% |      400451      1.56%     10.93% |      401293      1.57%     12.49% |      399538      1.56%     14.05% |      399339      1.56%     15.61% |      400531      1.56%     17.17% |      400463      1.56%     18.74% |      400423      1.56%     20.30% |      399661      1.56%     21.86% |      400912      1.56%     23.42% |      399693      1.56%     24.98% |      400704      1.56%     26.54% |      401018      1.56%     28.11% |      401576      1.57%     29.67% |      400746      1.56%     31.24% |      400188      1.56%     32.80% |      400896      1.56%     34.36% |      400538      1.56%     35.93% |      400486      1.56%     37.49% |      400578      1.56%     39.05% |      400778      1.56%     40.61% |      400822      1.56%     42.18% |      401125      1.56%     43.74% |      400758      1.56%     45.31% |      400680      1.56%     46.87% |      401728      1.57%     48.44% |      399715      1.56%     50.00% |      399966      1.56%     51.56% |      400835      1.56%     53.12% |      400820      1.56%     54.68% |      401131      1.56%     56.25% |      401105      1.56%     57.81% |      401240      1.57%     59.38% |      400723      1.56%     60.94% |      400233      1.56%     62.50% |      400410      1.56%     64.07% |      400934      1.56%     65.63% |      399999      1.56%     67.19% |      400739      1.56%     68.75% |      400650      1.56%     70.32% |      401452      1.57%     71.88% |      400635      1.56%     73.45% |      399772      1.56%     75.01% |      399910      1.56%     76.57% |      400046      1.56%     78.13% |      399932      1.56%     79.69% |      400669      1.56%     81.25% |      400928      1.56%     82.81% |      399735      1.56%     84.37% |      400282      1.56%     85.93% |      400045      1.56%     87.50% |      400154      1.56%     89.06% |      399524      1.56%     90.61% |      400559      1.56%     92.18% |      401265      1.57%     93.74% |      400517      1.56%     95.31% |      400044      1.56%     96.87% |      402112      1.57%     98.43% |      401219      1.57%    100.00% (Unspecified)
system.ruby.L1Cache_Controller.I.Response::total     25632952                       (Unspecified)
system.ruby.RequestType.LD.latency_hist_seqr::bucket_size            1                       (Unspecified)
system.ruby.RequestType.LD.latency_hist_seqr::max_bucket            9                       (Unspecified)
system.ruby.RequestType.LD.latency_hist_seqr::samples     25627845                       (Unspecified)
system.ruby.RequestType.LD.latency_hist_seqr::mean            1                       (Unspecified)
system.ruby.RequestType.LD.latency_hist_seqr::gmean            1                       (Unspecified)
system.ruby.RequestType.LD.latency_hist_seqr |           0      0.00%      0.00% |    25627845    100.00%    100.00% |           0      0.00%    100.00% |           0      0.00%    100.00% |           0      0.00%    100.00% |           0      0.00%    100.00% |           0      0.00%    100.00% |           0      0.00%    100.00% |           0      0.00%    100.00% |           0      0.00%    100.00% (Unspecified)
system.ruby.RequestType.LD.latency_hist_seqr::total     25627845                       (Unspecified)
system.ruby.RequestType.LD.hit_latency_hist_seqr::bucket_size            1                       (Unspecified)
system.ruby.RequestType.LD.hit_latency_hist_seqr::max_bucket            9                       (Unspecified)
system.ruby.RequestType.LD.hit_latency_hist_seqr::samples     25627845                       (Unspecified)
system.ruby.RequestType.LD.hit_latency_hist_seqr::mean            1                       (Unspecified)
system.ruby.RequestType.LD.hit_latency_hist_seqr::gmean            1                       (Unspecified)
system.ruby.RequestType.LD.hit_latency_hist_seqr |           0      0.00%      0.00% |    25627845    100.00%    100.00% |           0      0.00%    100.00% |           0      0.00%    100.00% |           0      0.00%    100.00% |           0      0.00%    100.00% |           0      0.00%    100.00% |           0      0.00%    100.00% |           0      0.00%    100.00% |           0      0.00%    100.00% (Unspecified)
system.ruby.RequestType.LD.hit_latency_hist_seqr::total     25627845                       (Unspecified)
system.ruby.RequestType.ST.latency_hist_seqr::bucket_size            1                       (Unspecified)
system.ruby.RequestType.ST.latency_hist_seqr::max_bucket            9                       (Unspecified)
system.ruby.RequestType.ST.latency_hist_seqr::samples     25632952                       (Unspecified)
system.ruby.RequestType.ST.latency_hist_seqr::mean            1                       (Unspecified)
system.ruby.RequestType.ST.latency_hist_seqr::gmean            1                       (Unspecified)
system.ruby.RequestType.ST.latency_hist_seqr |           0      0.00%      0.00% |    25632952    100.00%    100.00% |           0      0.00%    100.00% |           0      0.00%    100.00% |           0      0.00%    100.00% |           0      0.00%    100.00% |           0      0.00%    100.00% |           0      0.00%    100.00% |           0      0.00%    100.00% |           0      0.00%    100.00% (Unspecified)
system.ruby.RequestType.ST.latency_hist_seqr::total     25632952                       (Unspecified)
system.ruby.RequestType.ST.hit_latency_hist_seqr::bucket_size            1                       (Unspecified)
system.ruby.RequestType.ST.hit_latency_hist_seqr::max_bucket            9                       (Unspecified)
system.ruby.RequestType.ST.hit_latency_hist_seqr::samples     25632952                       (Unspecified)
system.ruby.RequestType.ST.hit_latency_hist_seqr::mean            1                       (Unspecified)
system.ruby.RequestType.ST.hit_latency_hist_seqr::gmean            1                       (Unspecified)
system.ruby.RequestType.ST.hit_latency_hist_seqr |           0      0.00%      0.00% |    25632952    100.00%    100.00% |           0      0.00%    100.00% |           0      0.00%    100.00% |           0      0.00%    100.00% |           0      0.00%    100.00% |           0      0.00%    100.00% |           0      0.00%    100.00% |           0      0.00%    100.00% |           0      0.00%    100.00% (Unspecified)
system.ruby.RequestType.ST.hit_latency_hist_seqr::total     25632952                       (Unspecified)
system.ruby.RequestType.IFETCH.latency_hist_seqr::bucket_size            1                       (Unspecified)
system.ruby.RequestType.IFETCH.latency_hist_seqr::max_bucket            9                       (Unspecified)
system.ruby.RequestType.IFETCH.latency_hist_seqr::samples     25630819                       (Unspecified)
system.ruby.RequestType.IFETCH.latency_hist_seqr::mean            1                       (Unspecified)
system.ruby.RequestType.IFETCH.latency_hist_seqr::gmean            1                       (Unspecified)
system.ruby.RequestType.IFETCH.latency_hist_seqr |           0      0.00%      0.00% |    25630819    100.00%    100.00% |           0      0.00%    100.00% |           0      0.00%    100.00% |           0      0.00%    100.00% |           0      0.00%    100.00% |           0      0.00%    100.00% |           0      0.00%    100.00% |           0      0.00%    100.00% |           0      0.00%    100.00% (Unspecified)
system.ruby.RequestType.IFETCH.latency_hist_seqr::total     25630819                       (Unspecified)
system.ruby.RequestType.IFETCH.hit_latency_hist_seqr::bucket_size            1                       (Unspecified)
system.ruby.RequestType.IFETCH.hit_latency_hist_seqr::max_bucket            9                       (Unspecified)
system.ruby.RequestType.IFETCH.hit_latency_hist_seqr::samples     25630819                       (Unspecified)
system.ruby.RequestType.IFETCH.hit_latency_hist_seqr::mean            1                       (Unspecified)
system.ruby.RequestType.IFETCH.hit_latency_hist_seqr::gmean            1                       (Unspecified)
system.ruby.RequestType.IFETCH.hit_latency_hist_seqr |           0      0.00%      0.00% |    25630819    100.00%    100.00% |           0      0.00%    100.00% |           0      0.00%    100.00% |           0      0.00%    100.00% |           0      0.00%    100.00% |           0      0.00%    100.00% |           0      0.00%    100.00% |           0      0.00%    100.00% |           0      0.00%    100.00% (Unspecified)
system.ruby.RequestType.IFETCH.hit_latency_hist_seqr::total     25630819                       (Unspecified)
system.ruby.clk_domain.clock                      250                       # Clock period in ticks (Tick)
system.ruby.dir_cntrl0.forwardToDir.m_msg_count       400974                       # Number of messages passed the buffer (Count)
system.ruby.dir_cntrl0.forwardToDir.m_buf_msgs     0.046680                       # Average number of messages in buffer ((Count/Tick))
system.ruby.dir_cntrl0.power_state.pwrStateResidencyTicks::UNDEFINED   2147483750                       # Cumulative time (in ticks) in various power states (Tick)
system.ruby.dir_cntrl0.requestToDir.m_msg_count       399928                       # Number of messages passed the buffer (Count)
system.ruby.dir_cntrl0.requestToDir.m_buf_msgs     0.046558                       # Average number of messages in buffer ((Count/Tick))
system.ruby.dir_cntrl0.responseToDir.m_msg_count       176968                       # Number of messages passed the buffer (Count)
system.ruby.dir_cntrl0.responseToDir.m_buf_msgs     0.020602                       # Average number of messages in buffer ((Count/Tick))
system.ruby.dir_cntrl1.forwardToDir.m_msg_count       400296                       # Number of messages passed the buffer (Count)
system.ruby.dir_cntrl1.forwardToDir.m_buf_msgs     0.046601                       # Average number of messages in buffer ((Count/Tick))
system.ruby.dir_cntrl1.power_state.pwrStateResidencyTicks::UNDEFINED   2147483750                       # Cumulative time (in ticks) in various power states (Tick)
system.ruby.dir_cntrl1.requestToDir.m_msg_count       400816                       # Number of messages passed the buffer (Count)
system.ruby.dir_cntrl1.requestToDir.m_buf_msgs     0.046661                       # Average number of messages in buffer ((Count/Tick))
system.ruby.dir_cntrl1.responseToDir.m_msg_count       177307                       # Number of messages passed the buffer (Count)
system.ruby.dir_cntrl1.responseToDir.m_buf_msgs     0.020641                       # Average number of messages in buffer ((Count/Tick))
system.ruby.dir_cntrl10.forwardToDir.m_msg_count       401119                       # Number of messages passed the buffer (Count)
system.ruby.dir_cntrl10.forwardToDir.m_buf_msgs     0.046696                       # Average number of messages in buffer ((Count/Tick))
system.ruby.dir_cntrl10.power_state.pwrStateResidencyTicks::UNDEFINED   2147483750                       # Cumulative time (in ticks) in various power states (Tick)
system.ruby.dir_cntrl10.requestToDir.m_msg_count       400849                       # Number of messages passed the buffer (Count)
system.ruby.dir_cntrl10.requestToDir.m_buf_msgs     0.046665                       # Average number of messages in buffer ((Count/Tick))
system.ruby.dir_cntrl10.responseToDir.m_msg_count       177633                       # Number of messages passed the buffer (Count)
system.ruby.dir_cntrl10.responseToDir.m_buf_msgs     0.020679                       # Average number of messages in buffer ((Count/Tick))
system.ruby.dir_cntrl11.forwardToDir.m_msg_count       400079                       # Number of messages passed the buffer (Count)
system.ruby.dir_cntrl11.forwardToDir.m_buf_msgs     0.046575                       # Average number of messages in buffer ((Count/Tick))
system.ruby.dir_cntrl11.power_state.pwrStateResidencyTicks::UNDEFINED   2147483750                       # Cumulative time (in ticks) in various power states (Tick)
system.ruby.dir_cntrl11.requestToDir.m_msg_count       401266                       # Number of messages passed the buffer (Count)
system.ruby.dir_cntrl11.requestToDir.m_buf_msgs     0.046714                       # Average number of messages in buffer ((Count/Tick))
system.ruby.dir_cntrl11.responseToDir.m_msg_count       177798                       # Number of messages passed the buffer (Count)
system.ruby.dir_cntrl11.responseToDir.m_buf_msgs     0.020698                       # Average number of messages in buffer ((Count/Tick))
system.ruby.dir_cntrl12.forwardToDir.m_msg_count       398791                       # Number of messages passed the buffer (Count)
system.ruby.dir_cntrl12.forwardToDir.m_buf_msgs     0.046425                       # Average number of messages in buffer ((Count/Tick))
system.ruby.dir_cntrl12.power_state.pwrStateResidencyTicks::UNDEFINED   2147483750                       # Cumulative time (in ticks) in various power states (Tick)
system.ruby.dir_cntrl12.requestToDir.m_msg_count       400845                       # Number of messages passed the buffer (Count)
system.ruby.dir_cntrl12.requestToDir.m_buf_msgs     0.046664                       # Average number of messages in buffer ((Count/Tick))
system.ruby.dir_cntrl12.responseToDir.m_msg_count       177544                       # Number of messages passed the buffer (Count)
system.ruby.dir_cntrl12.responseToDir.m_buf_msgs     0.020669                       # Average number of messages in buffer ((Count/Tick))
system.ruby.dir_cntrl13.forwardToDir.m_msg_count       401884                       # Number of messages passed the buffer (Count)
system.ruby.dir_cntrl13.forwardToDir.m_buf_msgs     0.046785                       # Average number of messages in buffer ((Count/Tick))
system.ruby.dir_cntrl13.power_state.pwrStateResidencyTicks::UNDEFINED   2147483750                       # Cumulative time (in ticks) in various power states (Tick)
system.ruby.dir_cntrl13.requestToDir.m_msg_count       399607                       # Number of messages passed the buffer (Count)
system.ruby.dir_cntrl13.requestToDir.m_buf_msgs     0.046520                       # Average number of messages in buffer ((Count/Tick))
system.ruby.dir_cntrl13.responseToDir.m_msg_count       177904                       # Number of messages passed the buffer (Count)
system.ruby.dir_cntrl13.responseToDir.m_buf_msgs     0.020711                       # Average number of messages in buffer ((Count/Tick))
system.ruby.dir_cntrl14.forwardToDir.m_msg_count       400315                       # Number of messages passed the buffer (Count)
system.ruby.dir_cntrl14.forwardToDir.m_buf_msgs     0.046603                       # Average number of messages in buffer ((Count/Tick))
system.ruby.dir_cntrl14.power_state.pwrStateResidencyTicks::UNDEFINED   2147483750                       # Cumulative time (in ticks) in various power states (Tick)
system.ruby.dir_cntrl14.requestToDir.m_msg_count       399904                       # Number of messages passed the buffer (Count)
system.ruby.dir_cntrl14.requestToDir.m_buf_msgs     0.046555                       # Average number of messages in buffer ((Count/Tick))
system.ruby.dir_cntrl14.responseToDir.m_msg_count       177559                       # Number of messages passed the buffer (Count)
system.ruby.dir_cntrl14.responseToDir.m_buf_msgs     0.020671                       # Average number of messages in buffer ((Count/Tick))
system.ruby.dir_cntrl15.forwardToDir.m_msg_count       400796                       # Number of messages passed the buffer (Count)
system.ruby.dir_cntrl15.forwardToDir.m_buf_msgs     0.046659                       # Average number of messages in buffer ((Count/Tick))
system.ruby.dir_cntrl15.power_state.pwrStateResidencyTicks::UNDEFINED   2147483750                       # Cumulative time (in ticks) in various power states (Tick)
system.ruby.dir_cntrl15.requestToDir.m_msg_count       401263                       # Number of messages passed the buffer (Count)
system.ruby.dir_cntrl15.requestToDir.m_buf_msgs     0.046713                       # Average number of messages in buffer ((Count/Tick))
system.ruby.dir_cntrl15.responseToDir.m_msg_count       177204                       # Number of messages passed the buffer (Count)
system.ruby.dir_cntrl15.responseToDir.m_buf_msgs     0.020629                       # Average number of messages in buffer ((Count/Tick))
system.ruby.dir_cntrl16.forwardToDir.m_msg_count       401225                       # Number of messages passed the buffer (Count)
system.ruby.dir_cntrl16.forwardToDir.m_buf_msgs     0.046709                       # Average number of messages in buffer ((Count/Tick))
system.ruby.dir_cntrl16.power_state.pwrStateResidencyTicks::UNDEFINED   2147483750                       # Cumulative time (in ticks) in various power states (Tick)
system.ruby.dir_cntrl16.requestToDir.m_msg_count       399616                       # Number of messages passed the buffer (Count)
system.ruby.dir_cntrl16.requestToDir.m_buf_msgs     0.046521                       # Average number of messages in buffer ((Count/Tick))
system.ruby.dir_cntrl16.responseToDir.m_msg_count       177520                       # Number of messages passed the buffer (Count)
system.ruby.dir_cntrl16.responseToDir.m_buf_msgs     0.020666                       # Average number of messages in buffer ((Count/Tick))
system.ruby.dir_cntrl17.forwardToDir.m_msg_count       401032                       # Number of messages passed the buffer (Count)
system.ruby.dir_cntrl17.forwardToDir.m_buf_msgs     0.046686                       # Average number of messages in buffer ((Count/Tick))
system.ruby.dir_cntrl17.power_state.pwrStateResidencyTicks::UNDEFINED   2147483750                       # Cumulative time (in ticks) in various power states (Tick)
system.ruby.dir_cntrl17.requestToDir.m_msg_count       401237                       # Number of messages passed the buffer (Count)
system.ruby.dir_cntrl17.requestToDir.m_buf_msgs     0.046710                       # Average number of messages in buffer ((Count/Tick))
system.ruby.dir_cntrl17.responseToDir.m_msg_count       176977                       # Number of messages passed the buffer (Count)
system.ruby.dir_cntrl17.responseToDir.m_buf_msgs     0.020603                       # Average number of messages in buffer ((Count/Tick))
system.ruby.dir_cntrl18.forwardToDir.m_msg_count       400266                       # Number of messages passed the buffer (Count)
system.ruby.dir_cntrl18.forwardToDir.m_buf_msgs     0.046597                       # Average number of messages in buffer ((Count/Tick))
system.ruby.dir_cntrl18.power_state.pwrStateResidencyTicks::UNDEFINED   2147483750                       # Cumulative time (in ticks) in various power states (Tick)
system.ruby.dir_cntrl18.requestToDir.m_msg_count       401126                       # Number of messages passed the buffer (Count)
system.ruby.dir_cntrl18.requestToDir.m_buf_msgs     0.046697                       # Average number of messages in buffer ((Count/Tick))
system.ruby.dir_cntrl18.responseToDir.m_msg_count       177985                       # Number of messages passed the buffer (Count)
system.ruby.dir_cntrl18.responseToDir.m_buf_msgs     0.020720                       # Average number of messages in buffer ((Count/Tick))
system.ruby.dir_cntrl19.forwardToDir.m_msg_count       400663                       # Number of messages passed the buffer (Count)
system.ruby.dir_cntrl19.forwardToDir.m_buf_msgs     0.046643                       # Average number of messages in buffer ((Count/Tick))
system.ruby.dir_cntrl19.power_state.pwrStateResidencyTicks::UNDEFINED   2147483750                       # Cumulative time (in ticks) in various power states (Tick)
system.ruby.dir_cntrl19.requestToDir.m_msg_count       400390                       # Number of messages passed the buffer (Count)
system.ruby.dir_cntrl19.requestToDir.m_buf_msgs     0.046612                       # Average number of messages in buffer ((Count/Tick))
system.ruby.dir_cntrl19.responseToDir.m_msg_count       176685                       # Number of messages passed the buffer (Count)
system.ruby.dir_cntrl19.responseToDir.m_buf_msgs     0.020569                       # Average number of messages in buffer ((Count/Tick))
system.ruby.dir_cntrl2.forwardToDir.m_msg_count       401027                       # Number of messages passed the buffer (Count)
system.ruby.dir_cntrl2.forwardToDir.m_buf_msgs     0.046686                       # Average number of messages in buffer ((Count/Tick))
system.ruby.dir_cntrl2.power_state.pwrStateResidencyTicks::UNDEFINED   2147483750                       # Cumulative time (in ticks) in various power states (Tick)
system.ruby.dir_cntrl2.requestToDir.m_msg_count       400324                       # Number of messages passed the buffer (Count)
system.ruby.dir_cntrl2.requestToDir.m_buf_msgs     0.046604                       # Average number of messages in buffer ((Count/Tick))
system.ruby.dir_cntrl2.responseToDir.m_msg_count       177023                       # Number of messages passed the buffer (Count)
system.ruby.dir_cntrl2.responseToDir.m_buf_msgs     0.020608                       # Average number of messages in buffer ((Count/Tick))
system.ruby.dir_cntrl20.forwardToDir.m_msg_count       400674                       # Number of messages passed the buffer (Count)
system.ruby.dir_cntrl20.forwardToDir.m_buf_msgs     0.046645                       # Average number of messages in buffer ((Count/Tick))
system.ruby.dir_cntrl20.power_state.pwrStateResidencyTicks::UNDEFINED   2147483750                       # Cumulative time (in ticks) in various power states (Tick)
system.ruby.dir_cntrl20.requestToDir.m_msg_count       401077                       # Number of messages passed the buffer (Count)
system.ruby.dir_cntrl20.requestToDir.m_buf_msgs     0.046692                       # Average number of messages in buffer ((Count/Tick))
system.ruby.dir_cntrl20.responseToDir.m_msg_count       177689                       # Number of messages passed the buffer (Count)
system.ruby.dir_cntrl20.responseToDir.m_buf_msgs     0.020686                       # Average number of messages in buffer ((Count/Tick))
system.ruby.dir_cntrl21.forwardToDir.m_msg_count       400861                       # Number of messages passed the buffer (Count)
system.ruby.dir_cntrl21.forwardToDir.m_buf_msgs     0.046666                       # Average number of messages in buffer ((Count/Tick))
system.ruby.dir_cntrl21.power_state.pwrStateResidencyTicks::UNDEFINED   2147483750                       # Cumulative time (in ticks) in various power states (Tick)
system.ruby.dir_cntrl21.requestToDir.m_msg_count       399629                       # Number of messages passed the buffer (Count)
system.ruby.dir_cntrl21.requestToDir.m_buf_msgs     0.046523                       # Average number of messages in buffer ((Count/Tick))
system.ruby.dir_cntrl21.responseToDir.m_msg_count       177623                       # Number of messages passed the buffer (Count)
system.ruby.dir_cntrl21.responseToDir.m_buf_msgs     0.020678                       # Average number of messages in buffer ((Count/Tick))
system.ruby.dir_cntrl22.forwardToDir.m_msg_count       399184                       # Number of messages passed the buffer (Count)
system.ruby.dir_cntrl22.forwardToDir.m_buf_msgs     0.046471                       # Average number of messages in buffer ((Count/Tick))
system.ruby.dir_cntrl22.power_state.pwrStateResidencyTicks::UNDEFINED   2147483750                       # Cumulative time (in ticks) in various power states (Tick)
system.ruby.dir_cntrl22.requestToDir.m_msg_count       400340                       # Number of messages passed the buffer (Count)
system.ruby.dir_cntrl22.requestToDir.m_buf_msgs     0.046606                       # Average number of messages in buffer ((Count/Tick))
system.ruby.dir_cntrl22.responseToDir.m_msg_count       177363                       # Number of messages passed the buffer (Count)
system.ruby.dir_cntrl22.responseToDir.m_buf_msgs     0.020648                       # Average number of messages in buffer ((Count/Tick))
system.ruby.dir_cntrl23.forwardToDir.m_msg_count       400829                       # Number of messages passed the buffer (Count)
system.ruby.dir_cntrl23.forwardToDir.m_buf_msgs     0.046663                       # Average number of messages in buffer ((Count/Tick))
system.ruby.dir_cntrl23.power_state.pwrStateResidencyTicks::UNDEFINED   2147483750                       # Cumulative time (in ticks) in various power states (Tick)
system.ruby.dir_cntrl23.requestToDir.m_msg_count       400155                       # Number of messages passed the buffer (Count)
system.ruby.dir_cntrl23.requestToDir.m_buf_msgs     0.046584                       # Average number of messages in buffer ((Count/Tick))
system.ruby.dir_cntrl23.responseToDir.m_msg_count       178320                       # Number of messages passed the buffer (Count)
system.ruby.dir_cntrl23.responseToDir.m_buf_msgs     0.020759                       # Average number of messages in buffer ((Count/Tick))
system.ruby.dir_cntrl24.forwardToDir.m_msg_count       401111                       # Number of messages passed the buffer (Count)
system.ruby.dir_cntrl24.forwardToDir.m_buf_msgs     0.046695                       # Average number of messages in buffer ((Count/Tick))
system.ruby.dir_cntrl24.power_state.pwrStateResidencyTicks::UNDEFINED   2147483750                       # Cumulative time (in ticks) in various power states (Tick)
system.ruby.dir_cntrl24.requestToDir.m_msg_count       399711                       # Number of messages passed the buffer (Count)
system.ruby.dir_cntrl24.requestToDir.m_buf_msgs     0.046532                       # Average number of messages in buffer ((Count/Tick))
system.ruby.dir_cntrl24.responseToDir.m_msg_count       177475                       # Number of messages passed the buffer (Count)
system.ruby.dir_cntrl24.responseToDir.m_buf_msgs     0.020661                       # Average number of messages in buffer ((Count/Tick))
system.ruby.dir_cntrl25.forwardToDir.m_msg_count       400237                       # Number of messages passed the buffer (Count)
system.ruby.dir_cntrl25.forwardToDir.m_buf_msgs     0.046594                       # Average number of messages in buffer ((Count/Tick))
system.ruby.dir_cntrl25.power_state.pwrStateResidencyTicks::UNDEFINED   2147483750                       # Cumulative time (in ticks) in various power states (Tick)
system.ruby.dir_cntrl25.requestToDir.m_msg_count       399491                       # Number of messages passed the buffer (Count)
system.ruby.dir_cntrl25.requestToDir.m_buf_msgs     0.046507                       # Average number of messages in buffer ((Count/Tick))
system.ruby.dir_cntrl25.responseToDir.m_msg_count       177760                       # Number of messages passed the buffer (Count)
system.ruby.dir_cntrl25.responseToDir.m_buf_msgs     0.020694                       # Average number of messages in buffer ((Count/Tick))
system.ruby.dir_cntrl26.forwardToDir.m_msg_count       400169                       # Number of messages passed the buffer (Count)
system.ruby.dir_cntrl26.forwardToDir.m_buf_msgs     0.046586                       # Average number of messages in buffer ((Count/Tick))
system.ruby.dir_cntrl26.power_state.pwrStateResidencyTicks::UNDEFINED   2147483750                       # Cumulative time (in ticks) in various power states (Tick)
system.ruby.dir_cntrl26.requestToDir.m_msg_count       401302                       # Number of messages passed the buffer (Count)
system.ruby.dir_cntrl26.requestToDir.m_buf_msgs     0.046718                       # Average number of messages in buffer ((Count/Tick))
system.ruby.dir_cntrl26.responseToDir.m_msg_count       177349                       # Number of messages passed the buffer (Count)
system.ruby.dir_cntrl26.responseToDir.m_buf_msgs     0.020646                       # Average number of messages in buffer ((Count/Tick))
system.ruby.dir_cntrl27.forwardToDir.m_msg_count       399682                       # Number of messages passed the buffer (Count)
system.ruby.dir_cntrl27.forwardToDir.m_buf_msgs     0.046529                       # Average number of messages in buffer ((Count/Tick))
system.ruby.dir_cntrl27.power_state.pwrStateResidencyTicks::UNDEFINED   2147483750                       # Cumulative time (in ticks) in various power states (Tick)
[...]
system.ruby.network.sankey.vcvn35.vcvn5             0                       (Unspecified)
system.ruby.network.sankey.vcvn35.vcvn6             0                       (Unspecified)
system.ruby.network.sankey.vcvn35.vcvn7             0                       (Unspecified)
system.ruby.network.sankey.vcvn35.vcvn8             0                       (Unspecified)
system.ruby.network.sankey.vcvn35.vcvn9             0                       (Unspecified)
system.ruby.network.sankey.vcvn4.vcvn0        1767258                       (Unspecified)
system.ruby.network.sankey.vcvn4.vcvn1         452663                       (Unspecified)
system.ruby.network.sankey.vcvn4.vcvn10           855                       (Unspecified)
system.ruby.network.sankey.vcvn4.vcvn11          1210                       (Unspecified)
system.ruby.network.sankey.vcvn4.vcvn12             0                       (Unspecified)
system.ruby.network.sankey.vcvn4.vcvn13             0                       (Unspecified)
system.ruby.network.sankey.vcvn4.vcvn14             0                       (Unspecified)
system.ruby.network.sankey.vcvn4.vcvn15             0                       (Unspecified)
system.ruby.network.sankey.vcvn4.vcvn16             0                       (Unspecified)
system.ruby.network.sankey.vcvn4.vcvn17             0                       (Unspecified)
system.ruby.network.sankey.vcvn4.vcvn18             0                       (Unspecified)
system.ruby.network.sankey.vcvn4.vcvn19             0                       (Unspecified)
system.ruby.network.sankey.vcvn4.vcvn2          68724                       (Unspecified)
system.ruby.network.sankey.vcvn4.vcvn20             0                       (Unspecified)
system.ruby.network.sankey.vcvn4.vcvn21             0                       (Unspecified)
system.ruby.network.sankey.vcvn4.vcvn22             0                       (Unspecified)
system.ruby.network.sankey.vcvn4.vcvn23             0                       (Unspecified)
system.ruby.network.sankey.vcvn4.vcvn24             0                       (Unspecified)
system.ruby.network.sankey.vcvn4.vcvn25             0                       (Unspecified)
system.ruby.network.sankey.vcvn4.vcvn26             0                       (Unspecified)
system.ruby.network.sankey.vcvn4.vcvn27             0                       (Unspecified)
system.ruby.network.sankey.vcvn4.vcvn28             0                       (Unspecified)
system.ruby.network.sankey.vcvn4.vcvn29             0                       (Unspecified)
system.ruby.network.sankey.vcvn4.vcvn3           6625                       (Unspecified)
system.ruby.network.sankey.vcvn4.vcvn30             0                       (Unspecified)
system.ruby.network.sankey.vcvn4.vcvn31             0                       (Unspecified)
system.ruby.network.sankey.vcvn4.vcvn32             0                       (Unspecified)
system.ruby.network.sankey.vcvn4.vcvn33             0                       (Unspecified)
system.ruby.network.sankey.vcvn4.vcvn34             0                       (Unspecified)
system.ruby.network.sankey.vcvn4.vcvn35             0                       (Unspecified)
system.ruby.network.sankey.vcvn4.vcvn4            347                       (Unspecified)
system.ruby.network.sankey.vcvn4.vcvn5              2                       (Unspecified)
system.ruby.network.sankey.vcvn4.vcvn6              0                       (Unspecified)
system.ruby.network.sankey.vcvn4.vcvn7              0                       (Unspecified)
system.ruby.network.sankey.vcvn4.vcvn8              0                       (Unspecified)
system.ruby.network.sankey.vcvn4.vcvn9              0                       (Unspecified)
system.ruby.network.sankey.vcvn5.vcvn0        1767040                       (Unspecified)
system.ruby.network.sankey.vcvn5.vcvn1         453316                       (Unspecified)
system.ruby.network.sankey.vcvn5.vcvn10           829                       (Unspecified)
system.ruby.network.sankey.vcvn5.vcvn11          1219                       (Unspecified)
system.ruby.network.sankey.vcvn5.vcvn12             0                       (Unspecified)
system.ruby.network.sankey.vcvn5.vcvn13             0                       (Unspecified)
system.ruby.network.sankey.vcvn5.vcvn14             0                       (Unspecified)
system.ruby.network.sankey.vcvn5.vcvn15             0                       (Unspecified)
system.ruby.network.sankey.vcvn5.vcvn16             0                       (Unspecified)
system.ruby.network.sankey.vcvn5.vcvn17             0                       (Unspecified)
system.ruby.network.sankey.vcvn5.vcvn18             0                       (Unspecified)
system.ruby.network.sankey.vcvn5.vcvn19             0                       (Unspecified)
system.ruby.network.sankey.vcvn5.vcvn2          68582                       (Unspecified)
system.ruby.network.sankey.vcvn5.vcvn20             0                       (Unspecified)
system.ruby.network.sankey.vcvn5.vcvn21             0                       (Unspecified)
system.ruby.network.sankey.vcvn5.vcvn22             0                       (Unspecified)
system.ruby.network.sankey.vcvn5.vcvn23             0                       (Unspecified)
system.ruby.network.sankey.vcvn5.vcvn24             0                       (Unspecified)
system.ruby.network.sankey.vcvn5.vcvn25             0                       (Unspecified)
system.ruby.network.sankey.vcvn5.vcvn26             0                       (Unspecified)
system.ruby.network.sankey.vcvn5.vcvn27             0                       (Unspecified)
system.ruby.network.sankey.vcvn5.vcvn28             0                       (Unspecified)
system.ruby.network.sankey.vcvn5.vcvn29             0                       (Unspecified)
system.ruby.network.sankey.vcvn5.vcvn3           6379                       (Unspecified)
system.ruby.network.sankey.vcvn5.vcvn30             0                       (Unspecified)
system.ruby.network.sankey.vcvn5.vcvn31             0                       (Unspecified)
system.ruby.network.sankey.vcvn5.vcvn32             0                       (Unspecified)
system.ruby.network.sankey.vcvn5.vcvn33             0                       (Unspecified)
system.ruby.network.sankey.vcvn5.vcvn34             0                       (Unspecified)
system.ruby.network.sankey.vcvn5.vcvn35             0                       (Unspecified)
system.ruby.network.sankey.vcvn5.vcvn4            315                       (Unspecified)
system.ruby.network.sankey.vcvn5.vcvn5              3                       (Unspecified)
system.ruby.network.sankey.vcvn5.vcvn6              0                       (Unspecified)
system.ruby.network.sankey.vcvn5.vcvn7              0                       (Unspecified)
system.ruby.network.sankey.vcvn5.vcvn8              0                       (Unspecified)
system.ruby.network.sankey.vcvn5.vcvn9              0                       (Unspecified)
system.ruby.network.sankey.vcvn6.vcvn0        1767298                       (Unspecified)
system.ruby.network.sankey.vcvn6.vcvn1         452595                       (Unspecified)
system.ruby.network.sankey.vcvn6.vcvn10           910                       (Unspecified)
system.ruby.network.sankey.vcvn6.vcvn11          1262                       (Unspecified)
system.ruby.network.sankey.vcvn6.vcvn12             0                       (Unspecified)
system.ruby.network.sankey.vcvn6.vcvn13             0                       (Unspecified)
system.ruby.network.sankey.vcvn6.vcvn14             0                       (Unspecified)
system.ruby.network.sankey.vcvn6.vcvn15             0                       (Unspecified)
system.ruby.network.sankey.vcvn6.vcvn16             0                       (Unspecified)
system.ruby.network.sankey.vcvn6.vcvn17             0                       (Unspecified)
system.ruby.network.sankey.vcvn6.vcvn18             0                       (Unspecified)
system.ruby.network.sankey.vcvn6.vcvn19             0                       (Unspecified)
system.ruby.network.sankey.vcvn6.vcvn2          68722                       (Unspecified)
system.ruby.network.sankey.vcvn6.vcvn20             0                       (Unspecified)
system.ruby.network.sankey.vcvn6.vcvn21             0                       (Unspecified)
system.ruby.network.sankey.vcvn6.vcvn22             0                       (Unspecified)
system.ruby.network.sankey.vcvn6.vcvn23             0                       (Unspecified)
system.ruby.network.sankey.vcvn6.vcvn24             0                       (Unspecified)
system.ruby.network.sankey.vcvn6.vcvn25             0                       (Unspecified)
system.ruby.network.sankey.vcvn6.vcvn26             0                       (Unspecified)
system.ruby.network.sankey.vcvn6.vcvn27             0                       (Unspecified)
system.ruby.network.sankey.vcvn6.vcvn28             0                       (Unspecified)
system.ruby.network.sankey.vcvn6.vcvn29             0                       (Unspecified)
system.ruby.network.sankey.vcvn6.vcvn3           6551                       (Unspecified)
system.ruby.network.sankey.vcvn6.vcvn30             0                       (Unspecified)
system.ruby.network.sankey.vcvn6.vcvn31             0                       (Unspecified)
system.ruby.network.sankey.vcvn6.vcvn32             0                       (Unspecified)
system.ruby.network.sankey.vcvn6.vcvn33             0                       (Unspecified)
system.ruby.network.sankey.vcvn6.vcvn34             0                       (Unspecified)
system.ruby.network.sankey.vcvn6.vcvn35             0                       (Unspecified)
system.ruby.network.sankey.vcvn6.vcvn4            341                       (Unspecified)
system.ruby.network.sankey.vcvn6.vcvn5              0                       (Unspecified)
system.ruby.network.sankey.vcvn6.vcvn6              0                       (Unspecified)
system.ruby.network.sankey.vcvn6.vcvn7              0                       (Unspecified)
system.ruby.network.sankey.vcvn6.vcvn8              0                       (Unspecified)
system.ruby.network.sankey.vcvn6.vcvn9              0                       (Unspecified)
system.ruby.network.sankey.vcvn7.vcvn0        1768240                       (Unspecified)
system.ruby.network.sankey.vcvn7.vcvn1         451550                       (Unspecified)
system.ruby.network.sankey.vcvn7.vcvn10           863                       (Unspecified)
system.ruby.network.sankey.vcvn7.vcvn11          1238                       (Unspecified)
system.ruby.network.sankey.vcvn7.vcvn12             0                       (Unspecified)
system.ruby.network.sankey.vcvn7.vcvn13             0                       (Unspecified)
system.ruby.network.sankey.vcvn7.vcvn14             0                       (Unspecified)
system.ruby.network.sankey.vcvn7.vcvn15             0                       (Unspecified)
system.ruby.network.sankey.vcvn7.vcvn16             0                       (Unspecified)
system.ruby.network.sankey.vcvn7.vcvn17             0                       (Unspecified)
system.ruby.network.sankey.vcvn7.vcvn18             0                       (Unspecified)
system.ruby.network.sankey.vcvn7.vcvn19             0                       (Unspecified)
system.ruby.network.sankey.vcvn7.vcvn2          69052                       (Unspecified)
system.ruby.network.sankey.vcvn7.vcvn20             0                       (Unspecified)
system.ruby.network.sankey.vcvn7.vcvn21             0                       (Unspecified)
system.ruby.network.sankey.vcvn7.vcvn22             0                       (Unspecified)
system.ruby.network.sankey.vcvn7.vcvn23             0                       (Unspecified)
system.ruby.network.sankey.vcvn7.vcvn24             0                       (Unspecified)
system.ruby.network.sankey.vcvn7.vcvn25             0                       (Unspecified)
system.ruby.network.sankey.vcvn7.vcvn26             0                       (Unspecified)
system.ruby.network.sankey.vcvn7.vcvn27             0                       (Unspecified)
system.ruby.network.sankey.vcvn7.vcvn28             0                       (Unspecified)
system.ruby.network.sankey.vcvn7.vcvn29             0                       (Unspecified)
system.ruby.network.sankey.vcvn7.vcvn3           6396                       (Unspecified)
system.ruby.network.sankey.vcvn7.vcvn30             0                       (Unspecified)
system.ruby.network.sankey.vcvn7.vcvn31             0                       (Unspecified)
system.ruby.network.sankey.vcvn7.vcvn32             0                       (Unspecified)
system.ruby.network.sankey.vcvn7.vcvn33             0                       (Unspecified)
system.ruby.network.sankey.vcvn7.vcvn34             0                       (Unspecified)
system.ruby.network.sankey.vcvn7.vcvn35             0                       (Unspecified)
system.ruby.network.sankey.vcvn7.vcvn4            326                       (Unspecified)
system.ruby.network.sankey.vcvn7.vcvn5              3                       (Unspecified)
system.ruby.network.sankey.vcvn7.vcvn6              0                       (Unspecified)
system.ruby.network.sankey.vcvn7.vcvn7              0                       (Unspecified)
system.ruby.network.sankey.vcvn7.vcvn8              0                       (Unspecified)
system.ruby.network.sankey.vcvn7.vcvn9              0                       (Unspecified)
system.ruby.network.sankey.vcvn8.vcvn0        1766463                       (Unspecified)
system.ruby.network.sankey.vcvn8.vcvn1         452862                       (Unspecified)
system.ruby.network.sankey.vcvn8.vcvn10           925                       (Unspecified)
system.ruby.network.sankey.vcvn8.vcvn11          1296                       (Unspecified)
system.ruby.network.sankey.vcvn8.vcvn12             0                       (Unspecified)
system.ruby.network.sankey.vcvn8.vcvn13             0                       (Unspecified)
system.ruby.network.sankey.vcvn8.vcvn14             0                       (Unspecified)
system.ruby.network.sankey.vcvn8.vcvn15             0                       (Unspecified)
system.ruby.network.sankey.vcvn8.vcvn16             0                       (Unspecified)
system.ruby.network.sankey.vcvn8.vcvn17             0                       (Unspecified)
system.ruby.network.sankey.vcvn8.vcvn18             0                       (Unspecified)
system.ruby.network.sankey.vcvn8.vcvn19             0                       (Unspecified)
system.ruby.network.sankey.vcvn8.vcvn2          69249                       (Unspecified)
system.ruby.network.sankey.vcvn8.vcvn20             0                       (Unspecified)
system.ruby.network.sankey.vcvn8.vcvn21             0                       (Unspecified)
system.ruby.network.sankey.vcvn8.vcvn22             0                       (Unspecified)
system.ruby.network.sankey.vcvn8.vcvn23             0                       (Unspecified)
system.ruby.network.sankey.vcvn8.vcvn24             0                       (Unspecified)
system.ruby.network.sankey.vcvn8.vcvn25             0                       (Unspecified)
system.ruby.network.sankey.vcvn8.vcvn26             0                       (Unspecified)
system.ruby.network.sankey.vcvn8.vcvn27             0                       (Unspecified)
system.ruby.network.sankey.vcvn8.vcvn28             0                       (Unspecified)
system.ruby.network.sankey.vcvn8.vcvn29             0                       (Unspecified)
system.ruby.network.sankey.vcvn8.vcvn3           6544                       (Unspecified)
system.ruby.network.sankey.vcvn8.vcvn30             0                       (Unspecified)
system.ruby.network.sankey.vcvn8.vcvn31             0                       (Unspecified)
system.ruby.network.sankey.vcvn8.vcvn32             0                       (Unspecified)
system.ruby.network.sankey.vcvn8.vcvn33             0                       (Unspecified)
system.ruby.network.sankey.vcvn8.vcvn34             0                       (Unspecified)
system.ruby.network.sankey.vcvn8.vcvn35             0                       (Unspecified)
system.ruby.network.sankey.vcvn8.vcvn4            321                       (Unspecified)
system.ruby.network.sankey.vcvn8.vcvn5              2                       (Unspecified)
system.ruby.network.sankey.vcvn8.vcvn6              0                       (Unspecified)
system.ruby.network.sankey.vcvn8.vcvn7              0                       (Unspecified)
system.ruby.network.sankey.vcvn8.vcvn8              0                       (Unspecified)
system.ruby.network.sankey.vcvn8.vcvn9              0                       (Unspecified)
system.ruby.network.sankey.vcvn9.vcvn0        1768535                       (Unspecified)
system.ruby.network.sankey.vcvn9.vcvn1         451302                       (Unspecified)
system.ruby.network.sankey.vcvn9.vcvn10           962                       (Unspecified)
system.ruby.network.sankey.vcvn9.vcvn11          1292                       (Unspecified)
system.ruby.network.sankey.vcvn9.vcvn12             0                       (Unspecified)
system.ruby.network.sankey.vcvn9.vcvn13             0                       (Unspecified)
system.ruby.network.sankey.vcvn9.vcvn14             0                       (Unspecified)
system.ruby.network.sankey.vcvn9.vcvn15             0                       (Unspecified)
system.ruby.network.sankey.vcvn9.vcvn16             0                       (Unspecified)
system.ruby.network.sankey.vcvn9.vcvn17             0                       (Unspecified)
system.ruby.network.sankey.vcvn9.vcvn18             0                       (Unspecified)
system.ruby.network.sankey.vcvn9.vcvn19             0                       (Unspecified)
system.ruby.network.sankey.vcvn9.vcvn2          68823                       (Unspecified)
system.ruby.network.sankey.vcvn9.vcvn20             0                       (Unspecified)
system.ruby.network.sankey.vcvn9.vcvn21             0                       (Unspecified)
system.ruby.network.sankey.vcvn9.vcvn22             0                       (Unspecified)
system.ruby.network.sankey.vcvn9.vcvn23             0                       (Unspecified)
system.ruby.network.sankey.vcvn9.vcvn24             0                       (Unspecified)
system.ruby.network.sankey.vcvn9.vcvn25             0                       (Unspecified)
system.ruby.network.sankey.vcvn9.vcvn26             0                       (Unspecified)
system.ruby.network.sankey.vcvn9.vcvn27             0                       (Unspecified)
system.ruby.network.sankey.vcvn9.vcvn28             0                       (Unspecified)
system.ruby.network.sankey.vcvn9.vcvn29             0                       (Unspecified)
system.ruby.network.sankey.vcvn9.vcvn3           6415                       (Unspecified)
system.ruby.network.sankey.vcvn9.vcvn30             0                       (Unspecified)
system.ruby.network.sankey.vcvn9.vcvn31             0                       (Unspecified)
system.ruby.network.sankey.vcvn9.vcvn32             0                       (Unspecified)
system.ruby.network.sankey.vcvn9.vcvn33             0                       (Unspecified)
system.ruby.network.sankey.vcvn9.vcvn34             0                       (Unspecified)
system.ruby.network.sankey.vcvn9.vcvn35             0                       (Unspecified)
system.ruby.network.sankey.vcvn9.vcvn4            323                       (Unspecified)
system.ruby.network.sankey.vcvn9.vcvn5              3                       (Unspecified)
system.ruby.network.sankey.vcvn9.vcvn6              0                       (Unspecified)
system.ruby.network.sankey.vcvn9.vcvn7              0                       (Unspecified)
system.ruby.network.sankey.vcvn9.vcvn8              0                       (Unspecified)
system.ruby.network.sankey.vcvn9.vcvn9              0                       (Unspecified)

---------- End Simulation Statistics   ----------
