gem5 Simulator System.  https://www.gem5.org
gem5 is copyrighted software; use the --copyright option for details.

gem5 version 22.0.0.2
gem5 compiled Jun 17 2023 14:31:12
gem5 started Nov 18 2023 15:49:55
gem5 executing on mnemosyne24.ecn.purdue.edu, pid 14433
command line: ./build/Garnet_standalone/gem5.fast -d ./synth_outputs/simple/2b/mixed/nndbt_none_2_6_40cpus_4xdirs_4.0GHz/mem/butter_donut_x/0_145/ configs/auto_top/auto_top_synth.py --topology EscapeVirtualNetworks --noi_routers 20 --sim-cycles 2147483647 --injectionrate 0.145 --noc_clk 4.0GHz --sys-clock 4.0GHz --ruby-clock 4.0GHz --noi_clk 2.7GHz --router_map_file configs/topologies/paper_solutions/butter_donut_x.map --flat_vn_map_file configs/topologies/vn_maps_ndbt/butter_donut_x_nndbt_none_2vns.vn --flat_nr_map_file configs/topologies/nr_list_ndbt/butter_donut_x_nndbt.nrl --ruby --mem_or_coh mem --mem-size 320000000 --num-dirs 64 --num-cpus 40 --network garnet --mem-type SimpleMemory --routing-algorithm 2 --use_escape_vns --synth_traffic --vcs-per-vnet 6 --evn_deadlock_partition 4 --evn_n_deadlock_free 1 --evn_min_n_deadlock_free 2

info: Standard input is not a terminal, disabling listeners.
ingesting configs/topologies/vn_maps_ndbt/butter_donut_x_nndbt_none_2vns.vn
cpus(40)=[<m5.objects.GarnetSyntheticTraffic.GarnetSyntheticTraffic object at 0x7efdf8061080>, <m5.objects.GarnetSyntheticTraffic.GarnetSyntheticTraffic object at 0x7efdf8061e48>, <m5.objects.GarnetSyntheticTraffic.GarnetSyntheticTraffic object at 0x7efdf7bde160>, <m5.objects.GarnetSyntheticTraffic.GarnetSyntheticTraffic object at 0x7efdf7bde438>, <m5.objects.GarnetSyntheticTraffic.GarnetSyntheticTraffic object at 0x7efdf7bde710>, <m5.objects.GarnetSyntheticTraffic.GarnetSyntheticTraffic object at 0x7efdf7bde9e8>, <m5.objects.GarnetSyntheticTraffic.GarnetSyntheticTraffic object at 0x7efdf7bdecc0>, <m5.objects.GarnetSyntheticTraffic.GarnetSyntheticTraffic object at 0x7efdf7bdef98>, <m5.objects.GarnetSyntheticTraffic.GarnetSyntheticTraffic object at 0x7efdf7be72b0>, <m5.objects.GarnetSyntheticTraffic.GarnetSyntheticTraffic object at 0x7efdf7be7588>, <m5.objects.GarnetSyntheticTraffic.GarnetSyntheticTraffic object at 0x7efdf7be7860>, <m5.objects.GarnetSyntheticTraffic.GarnetSyntheticTraffic object at 0x7efdf7be7b38>, <m5.objects.GarnetSyntheticTraffic.GarnetSyntheticTraffic object at 0x7efdf8061898>, <m5.objects.GarnetSyntheticTraffic.GarnetSyntheticTraffic object at 0x7efdf8051eb8>, <m5.objects.GarnetSyntheticTraffic.GarnetSyntheticTraffic object at 0x7efdf805b710>, <m5.objects.GarnetSyntheticTraffic.GarnetSyntheticTraffic object at 0x7efdf805bd68>, <m5.objects.GarnetSyntheticTraffic.GarnetSyntheticTraffic object at 0x7efdf7be7da0>, <m5.objects.GarnetSyntheticTraffic.GarnetSyntheticTraffic object at 0x7efdf7bf30b8>, <m5.objects.GarnetSyntheticTraffic.GarnetSyntheticTraffic object at 0x7efdf7bf3390>, <m5.objects.GarnetSyntheticTraffic.GarnetSyntheticTraffic object at 0x7efdf7bf3668>, <m5.objects.GarnetSyntheticTraffic.GarnetSyntheticTraffic object at 0x7efdf7bf3940>, <m5.objects.GarnetSyntheticTraffic.GarnetSyntheticTraffic object at 0x7efdf7bf3c18>, <m5.objects.GarnetSyntheticTraffic.GarnetSyntheticTraffic object at 0x7efdf7bf3eb8>, <m5.objects.GarnetSyntheticTraffic.GarnetSyntheticTraffic object at 0x7efdf7bfa1d0>, <m5.objects.GarnetSyntheticTraffic.GarnetSyntheticTraffic object at 0x7efdf7bfa4a8>, <m5.objects.GarnetSyntheticTraffic.GarnetSyntheticTraffic object at 0x7efdf7bfa780>, <m5.objects.GarnetSyntheticTraffic.GarnetSyntheticTraffic object at 0x7efdf7bfaa58>, <m5.objects.GarnetSyntheticTraffic.GarnetSyntheticTraffic object at 0x7efdf7bfad30>, <m5.objects.GarnetSyntheticTraffic.GarnetSyntheticTraffic object at 0x7efdf7c02048>, <m5.objects.GarnetSyntheticTraffic.GarnetSyntheticTraffic object at 0x7efdf7c02320>, <m5.objects.GarnetSyntheticTraffic.GarnetSyntheticTraffic object at 0x7efdf7c025f8>, <m5.objects.GarnetSyntheticTraffic.GarnetSyntheticTraffic object at 0x7efdf7c028d0>, <m5.objects.GarnetSyntheticTraffic.GarnetSyntheticTraffic object at 0x7efdf7c02ba8>, <m5.objects.GarnetSyntheticTraffic.GarnetSyntheticTraffic object at 0x7efdf7c02e80>, <m5.objects.GarnetSyntheticTraffic.GarnetSyntheticTraffic object at 0x7efdf7c0b198>, <m5.objects.GarnetSyntheticTraffic.GarnetSyntheticTraffic object at 0x7efdf7c0b470>, <m5.objects.GarnetSyntheticTraffic.GarnetSyntheticTraffic object at 0x7efdf7c0b748>, <m5.objects.GarnetSyntheticTraffic.GarnetSyntheticTraffic object at 0x7efdf7c0ba20>, <m5.objects.GarnetSyntheticTraffic.GarnetSyntheticTraffic object at 0x7efdf7c0bcf8>, <m5.objects.GarnetSyntheticTraffic.GarnetSyntheticTraffic object at 0x7efdf7c0bfd0>])
ingesting configs/topologies/nr_list_ndbt/butter_donut_x_nndbt.nrl
ingesting configs/topologies/vn_maps_ndbt/butter_donut_x_nndbt_none_2vns.vn
ext_cdc_required = True
