gem5 Simulator System.  https://www.gem5.org
gem5 is copyrighted software; use the --copyright option for details.

gem5 version 22.0.0.2
gem5 compiled Jun 17 2023 14:31:12
gem5 started Nov 18 2023 15:49:41
gem5 executing on mnemosyne14.ecn.purdue.edu, pid 23628
command line: ./build/Garnet_standalone/gem5.fast -d ./synth_outputs/simple/2b/mixed/mclb_hops_4_6_40cpus_4xdirs_4.0GHz/coh/dbl_bfly_x/0_17/ configs/auto_top/auto_top_synth.py --topology EscapeVirtualNetworks --noi_routers 20 --sim-cycles 2147483647 --injectionrate 0.17 --noc_clk 4.0GHz --sys-clock 4.0GHz --ruby-clock 4.0GHz --noi_clk 2.7GHz --router_map_file configs/topologies/paper_solutions/dbl_bfly_x.map --flat_vn_map_file configs/topologies/vn_maps_mclb/dbl_bfly_x_mclb_hops_4vns.vn --flat_nr_map_file configs/topologies/nr_list_mclb/dbl_bfly_x_mclb.nrl --ruby --mem_or_coh coh --mem-size 320000000 --num-dirs 160 --num-cpus 40 --network garnet --mem-type SimpleMemory --routing-algorithm 2 --use_escape_vns --synth_traffic --vcs-per-vnet 6 --evn_deadlock_partition 2 --evn_n_deadlock_free 1 --evn_min_n_deadlock_free 4

info: Standard input is not a terminal, disabling listeners.
ingesting configs/topologies/vn_maps_mclb/dbl_bfly_x_mclb_hops_4vns.vn
cpus(40)=[<m5.objects.GarnetSyntheticTraffic.GarnetSyntheticTraffic object at 0x7fa15fd480f0>, <m5.objects.GarnetSyntheticTraffic.GarnetSyntheticTraffic object at 0x7fa15fd48dd8>, <m5.objects.GarnetSyntheticTraffic.GarnetSyntheticTraffic object at 0x7fa15f8c50f0>, <m5.objects.GarnetSyntheticTraffic.GarnetSyntheticTraffic object at 0x7fa15f8c53c8>, <m5.objects.GarnetSyntheticTraffic.GarnetSyntheticTraffic object at 0x7fa15f8c56a0>, <m5.objects.GarnetSyntheticTraffic.GarnetSyntheticTraffic object at 0x7fa15f8c5978>, <m5.objects.GarnetSyntheticTraffic.GarnetSyntheticTraffic object at 0x7fa15f8c5c50>, <m5.objects.GarnetSyntheticTraffic.GarnetSyntheticTraffic object at 0x7fa15f8c5f28>, <m5.objects.GarnetSyntheticTraffic.GarnetSyntheticTraffic object at 0x7fa15f8ce240>, <m5.objects.GarnetSyntheticTraffic.GarnetSyntheticTraffic object at 0x7fa15f8ce518>, <m5.objects.GarnetSyntheticTraffic.GarnetSyntheticTraffic object at 0x7fa15f8ce7f0>, <m5.objects.GarnetSyntheticTraffic.GarnetSyntheticTraffic object at 0x7fa15f8ceac8>, <m5.objects.GarnetSyntheticTraffic.GarnetSyntheticTraffic object at 0x7fa15fd487b8>, <m5.objects.GarnetSyntheticTraffic.GarnetSyntheticTraffic object at 0x7fa15fd38e48>, <m5.objects.GarnetSyntheticTraffic.GarnetSyntheticTraffic object at 0x7fa15fd42668>, <m5.objects.GarnetSyntheticTraffic.GarnetSyntheticTraffic object at 0x7fa15fd42cc0>, <m5.objects.GarnetSyntheticTraffic.GarnetSyntheticTraffic object at 0x7fa15f8ced30>, <m5.objects.GarnetSyntheticTraffic.GarnetSyntheticTraffic object at 0x7fa15f8da048>, <m5.objects.GarnetSyntheticTraffic.GarnetSyntheticTraffic object at 0x7fa15f8da320>, <m5.objects.GarnetSyntheticTraffic.GarnetSyntheticTraffic object at 0x7fa15f8da5f8>, <m5.objects.GarnetSyntheticTraffic.GarnetSyntheticTraffic object at 0x7fa15f8da8d0>, <m5.objects.GarnetSyntheticTraffic.GarnetSyntheticTraffic object at 0x7fa15f8daba8>, <m5.objects.GarnetSyntheticTraffic.GarnetSyntheticTraffic object at 0x7fa15f8dae80>, <m5.objects.GarnetSyntheticTraffic.GarnetSyntheticTraffic object at 0x7fa15f8e1198>, <m5.objects.GarnetSyntheticTraffic.GarnetSyntheticTraffic object at 0x7fa15f8e1470>, <m5.objects.GarnetSyntheticTraffic.GarnetSyntheticTraffic object at 0x7fa15f8e1748>, <m5.objects.GarnetSyntheticTraffic.GarnetSyntheticTraffic object at 0x7fa15f8e1a20>, <m5.objects.GarnetSyntheticTraffic.GarnetSyntheticTraffic object at 0x7fa15f8e1cf8>, <m5.objects.GarnetSyntheticTraffic.GarnetSyntheticTraffic object at 0x7fa15f8e1fd0>, <m5.objects.GarnetSyntheticTraffic.GarnetSyntheticTraffic object at 0x7fa15f8e92e8>, <m5.objects.GarnetSyntheticTraffic.GarnetSyntheticTraffic object at 0x7fa15f8e95c0>, <m5.objects.GarnetSyntheticTraffic.GarnetSyntheticTraffic object at 0x7fa15f8e9898>, <m5.objects.GarnetSyntheticTraffic.GarnetSyntheticTraffic object at 0x7fa15f8e9b70>, <m5.objects.GarnetSyntheticTraffic.GarnetSyntheticTraffic object at 0x7fa15f8e9e48>, <m5.objects.GarnetSyntheticTraffic.GarnetSyntheticTraffic object at 0x7fa15f8f2160>, <m5.objects.GarnetSyntheticTraffic.GarnetSyntheticTraffic object at 0x7fa15f8f2438>, <m5.objects.GarnetSyntheticTraffic.GarnetSyntheticTraffic object at 0x7fa15f8f2710>, <m5.objects.GarnetSyntheticTraffic.GarnetSyntheticTraffic object at 0x7fa15f8f29e8>, <m5.objects.GarnetSyntheticTraffic.GarnetSyntheticTraffic object at 0x7fa15f8f2cc0>, <m5.objects.GarnetSyntheticTraffic.GarnetSyntheticTraffic object at 0x7fa15f8f2f98>])
ingesting configs/topologies/nr_list_mclb/dbl_bfly_x_mclb.nrl
ingesting configs/topologies/vn_maps_mclb/dbl_bfly_x_mclb_hops_4vns.vn
ext_cdc_required = True
