gem5 Simulator System.  https://www.gem5.org
gem5 is copyrighted software; use the --copyright option for details.

gem5 version 22.0.0.2
gem5 compiled Jun 17 2023 14:31:12
gem5 started Nov 18 2023 15:50:54
gem5 executing on mnemosyne14.ecn.purdue.edu, pid 24027
command line: ./build/Garnet_standalone/gem5.fast -d ./synth_outputs/simple/2b/mixed/mclb_hops_4_6_40cpus_4xdirs_4.0GHz/coh/lpbt_s_latop/0_19/ configs/auto_top/auto_top_synth.py --topology EscapeVirtualNetworks --noi_routers 20 --sim-cycles 2147483647 --injectionrate 0.19 --noc_clk 4.0GHz --sys-clock 4.0GHz --ruby-clock 4.0GHz --noi_clk 3.6GHz --router_map_file configs/topologies/paper_solutions/lpbt_s_latop.map --flat_vn_map_file configs/topologies/vn_maps_mclb/lpbt_s_latop_mclb_hops_4vns.vn --flat_nr_map_file configs/topologies/nr_list_mclb/lpbt_s_latop_mclb.nrl --ruby --mem_or_coh coh --mem-size 320000000 --num-dirs 160 --num-cpus 40 --network garnet --mem-type SimpleMemory --routing-algorithm 2 --use_escape_vns --synth_traffic --vcs-per-vnet 6 --evn_deadlock_partition 2 --evn_n_deadlock_free 1 --evn_min_n_deadlock_free 4

info: Standard input is not a terminal, disabling listeners.
ingesting configs/topologies/vn_maps_mclb/lpbt_s_latop_mclb_hops_4vns.vn
cpus(40)=[<m5.objects.GarnetSyntheticTraffic.GarnetSyntheticTraffic object at 0x7f9c58371048>, <m5.objects.GarnetSyntheticTraffic.GarnetSyntheticTraffic object at 0x7f9c58371e10>, <m5.objects.GarnetSyntheticTraffic.GarnetSyntheticTraffic object at 0x7f9c57eed128>, <m5.objects.GarnetSyntheticTraffic.GarnetSyntheticTraffic object at 0x7f9c57eed400>, <m5.objects.GarnetSyntheticTraffic.GarnetSyntheticTraffic object at 0x7f9c57eed6d8>, <m5.objects.GarnetSyntheticTraffic.GarnetSyntheticTraffic object at 0x7f9c57eed9b0>, <m5.objects.GarnetSyntheticTraffic.GarnetSyntheticTraffic object at 0x7f9c57eedc88>, <m5.objects.GarnetSyntheticTraffic.GarnetSyntheticTraffic object at 0x7f9c57eedf60>, <m5.objects.GarnetSyntheticTraffic.GarnetSyntheticTraffic object at 0x7f9c57ef6278>, <m5.objects.GarnetSyntheticTraffic.GarnetSyntheticTraffic object at 0x7f9c57ef6550>, <m5.objects.GarnetSyntheticTraffic.GarnetSyntheticTraffic object at 0x7f9c57ef6828>, <m5.objects.GarnetSyntheticTraffic.GarnetSyntheticTraffic object at 0x7f9c57ef6b00>, <m5.objects.GarnetSyntheticTraffic.GarnetSyntheticTraffic object at 0x7f9c58371860>, <m5.objects.GarnetSyntheticTraffic.GarnetSyntheticTraffic object at 0x7f9c58360eb8>, <m5.objects.GarnetSyntheticTraffic.GarnetSyntheticTraffic object at 0x7f9c5836a6d8>, <m5.objects.GarnetSyntheticTraffic.GarnetSyntheticTraffic object at 0x7f9c5836ad30>, <m5.objects.GarnetSyntheticTraffic.GarnetSyntheticTraffic object at 0x7f9c57ef6d68>, <m5.objects.GarnetSyntheticTraffic.GarnetSyntheticTraffic object at 0x7f9c57f02080>, <m5.objects.GarnetSyntheticTraffic.GarnetSyntheticTraffic object at 0x7f9c57f02358>, <m5.objects.GarnetSyntheticTraffic.GarnetSyntheticTraffic object at 0x7f9c57f02630>, <m5.objects.GarnetSyntheticTraffic.GarnetSyntheticTraffic object at 0x7f9c57f02908>, <m5.objects.GarnetSyntheticTraffic.GarnetSyntheticTraffic object at 0x7f9c57f02be0>, <m5.objects.GarnetSyntheticTraffic.GarnetSyntheticTraffic object at 0x7f9c57f02eb8>, <m5.objects.GarnetSyntheticTraffic.GarnetSyntheticTraffic object at 0x7f9c57f091d0>, <m5.objects.GarnetSyntheticTraffic.GarnetSyntheticTraffic object at 0x7f9c57f094a8>, <m5.objects.GarnetSyntheticTraffic.GarnetSyntheticTraffic object at 0x7f9c57f09780>, <m5.objects.GarnetSyntheticTraffic.GarnetSyntheticTraffic object at 0x7f9c57f09a58>, <m5.objects.GarnetSyntheticTraffic.GarnetSyntheticTraffic object at 0x7f9c57f09d30>, <m5.objects.GarnetSyntheticTraffic.GarnetSyntheticTraffic object at 0x7f9c57f11048>, <m5.objects.GarnetSyntheticTraffic.GarnetSyntheticTraffic object at 0x7f9c57f11320>, <m5.objects.GarnetSyntheticTraffic.GarnetSyntheticTraffic object at 0x7f9c57f115f8>, <m5.objects.GarnetSyntheticTraffic.GarnetSyntheticTraffic object at 0x7f9c57f118d0>, <m5.objects.GarnetSyntheticTraffic.GarnetSyntheticTraffic object at 0x7f9c57f11ba8>, <m5.objects.GarnetSyntheticTraffic.GarnetSyntheticTraffic object at 0x7f9c57f11e80>, <m5.objects.GarnetSyntheticTraffic.GarnetSyntheticTraffic object at 0x7f9c57f1a198>, <m5.objects.GarnetSyntheticTraffic.GarnetSyntheticTraffic object at 0x7f9c57f1a470>, <m5.objects.GarnetSyntheticTraffic.GarnetSyntheticTraffic object at 0x7f9c57f1a748>, <m5.objects.GarnetSyntheticTraffic.GarnetSyntheticTraffic object at 0x7f9c57f1aa20>, <m5.objects.GarnetSyntheticTraffic.GarnetSyntheticTraffic object at 0x7f9c57f1acf8>, <m5.objects.GarnetSyntheticTraffic.GarnetSyntheticTraffic object at 0x7f9c57f1afd0>])
ingesting configs/topologies/nr_list_mclb/lpbt_s_latop_mclb.nrl
ingesting configs/topologies/vn_maps_mclb/lpbt_s_latop_mclb_hops_4vns.vn
ext_cdc_required = True
