gem5 Simulator System.  https://www.gem5.org
gem5 is copyrighted software; use the --copyright option for details.

gem5 version 22.0.0.2
gem5 compiled Jun 17 2023 14:31:12
gem5 started Nov 18 2023 15:48:20
gem5 executing on mnemosyne14.ecn.purdue.edu, pid 23070
command line: ./build/Garnet_standalone/gem5.fast -d ./synth_outputs/simple/2b/mixed/mclb_hops_4_6_40cpus_4xdirs_4.0GHz/coh/kite_medium/0_145/ configs/auto_top/auto_top_synth.py --topology EscapeVirtualNetworks --noi_routers 20 --sim-cycles 2147483647 --injectionrate 0.145 --noc_clk 4.0GHz --sys-clock 4.0GHz --ruby-clock 4.0GHz --noi_clk 3.0GHz --router_map_file configs/topologies/paper_solutions/kite_medium.map --flat_vn_map_file configs/topologies/vn_maps_mclb/kite_medium_mclb_hops_4vns.vn --flat_nr_map_file configs/topologies/nr_list_mclb/kite_medium_mclb.nrl --ruby --mem_or_coh coh --mem-size 320000000 --num-dirs 160 --num-cpus 40 --network garnet --mem-type SimpleMemory --routing-algorithm 2 --use_escape_vns --synth_traffic --vcs-per-vnet 6 --evn_deadlock_partition 2 --evn_n_deadlock_free 1 --evn_min_n_deadlock_free 4

info: Standard input is not a terminal, disabling listeners.
ingesting configs/topologies/vn_maps_mclb/kite_medium_mclb_hops_4vns.vn
cpus(40)=[<m5.objects.GarnetSyntheticTraffic.GarnetSyntheticTraffic object at 0x7ff9cd9d8048>, <m5.objects.GarnetSyntheticTraffic.GarnetSyntheticTraffic object at 0x7ff9cd9d8e10>, <m5.objects.GarnetSyntheticTraffic.GarnetSyntheticTraffic object at 0x7ff9cd555128>, <m5.objects.GarnetSyntheticTraffic.GarnetSyntheticTraffic object at 0x7ff9cd555400>, <m5.objects.GarnetSyntheticTraffic.GarnetSyntheticTraffic object at 0x7ff9cd5556d8>, <m5.objects.GarnetSyntheticTraffic.GarnetSyntheticTraffic object at 0x7ff9cd5559b0>, <m5.objects.GarnetSyntheticTraffic.GarnetSyntheticTraffic object at 0x7ff9cd555c88>, <m5.objects.GarnetSyntheticTraffic.GarnetSyntheticTraffic object at 0x7ff9cd555f60>, <m5.objects.GarnetSyntheticTraffic.GarnetSyntheticTraffic object at 0x7ff9cd55e278>, <m5.objects.GarnetSyntheticTraffic.GarnetSyntheticTraffic object at 0x7ff9cd55e550>, <m5.objects.GarnetSyntheticTraffic.GarnetSyntheticTraffic object at 0x7ff9cd55e828>, <m5.objects.GarnetSyntheticTraffic.GarnetSyntheticTraffic object at 0x7ff9cd55eb00>, <m5.objects.GarnetSyntheticTraffic.GarnetSyntheticTraffic object at 0x7ff9cd9d8860>, <m5.objects.GarnetSyntheticTraffic.GarnetSyntheticTraffic object at 0x7ff9cd9c8eb8>, <m5.objects.GarnetSyntheticTraffic.GarnetSyntheticTraffic object at 0x7ff9cd9d26d8>, <m5.objects.GarnetSyntheticTraffic.GarnetSyntheticTraffic object at 0x7ff9cd9d2d30>, <m5.objects.GarnetSyntheticTraffic.GarnetSyntheticTraffic object at 0x7ff9cd55ed68>, <m5.objects.GarnetSyntheticTraffic.GarnetSyntheticTraffic object at 0x7ff9cd56a080>, <m5.objects.GarnetSyntheticTraffic.GarnetSyntheticTraffic object at 0x7ff9cd56a358>, <m5.objects.GarnetSyntheticTraffic.GarnetSyntheticTraffic object at 0x7ff9cd56a630>, <m5.objects.GarnetSyntheticTraffic.GarnetSyntheticTraffic object at 0x7ff9cd56a908>, <m5.objects.GarnetSyntheticTraffic.GarnetSyntheticTraffic object at 0x7ff9cd56abe0>, <m5.objects.GarnetSyntheticTraffic.GarnetSyntheticTraffic object at 0x7ff9cd56aeb8>, <m5.objects.GarnetSyntheticTraffic.GarnetSyntheticTraffic object at 0x7ff9cd5711d0>, <m5.objects.GarnetSyntheticTraffic.GarnetSyntheticTraffic object at 0x7ff9cd5714a8>, <m5.objects.GarnetSyntheticTraffic.GarnetSyntheticTraffic object at 0x7ff9cd571780>, <m5.objects.GarnetSyntheticTraffic.GarnetSyntheticTraffic object at 0x7ff9cd571a58>, <m5.objects.GarnetSyntheticTraffic.GarnetSyntheticTraffic object at 0x7ff9cd571d30>, <m5.objects.GarnetSyntheticTraffic.GarnetSyntheticTraffic object at 0x7ff9cd579048>, <m5.objects.GarnetSyntheticTraffic.GarnetSyntheticTraffic object at 0x7ff9cd579320>, <m5.objects.GarnetSyntheticTraffic.GarnetSyntheticTraffic object at 0x7ff9cd5795f8>, <m5.objects.GarnetSyntheticTraffic.GarnetSyntheticTraffic object at 0x7ff9cd5798d0>, <m5.objects.GarnetSyntheticTraffic.GarnetSyntheticTraffic object at 0x7ff9cd579ba8>, <m5.objects.GarnetSyntheticTraffic.GarnetSyntheticTraffic object at 0x7ff9cd579e80>, <m5.objects.GarnetSyntheticTraffic.GarnetSyntheticTraffic object at 0x7ff9cd582198>, <m5.objects.GarnetSyntheticTraffic.GarnetSyntheticTraffic object at 0x7ff9cd582470>, <m5.objects.GarnetSyntheticTraffic.GarnetSyntheticTraffic object at 0x7ff9cd582748>, <m5.objects.GarnetSyntheticTraffic.GarnetSyntheticTraffic object at 0x7ff9cd582a20>, <m5.objects.GarnetSyntheticTraffic.GarnetSyntheticTraffic object at 0x7ff9cd582cf8>, <m5.objects.GarnetSyntheticTraffic.GarnetSyntheticTraffic object at 0x7ff9cd582fd0>])
ingesting configs/topologies/nr_list_mclb/kite_medium_mclb.nrl
ingesting configs/topologies/vn_maps_mclb/kite_medium_mclb_hops_4vns.vn
ext_cdc_required = True
