gem5 Simulator System.  https://www.gem5.org
gem5 is copyrighted software; use the --copyright option for details.

gem5 version 22.0.0.2
gem5 compiled Jun 17 2023 14:31:12
gem5 started Nov 18 2023 15:51:11
gem5 executing on mnemosyne14.ecn.purdue.edu, pid 24099
command line: ./build/Garnet_standalone/gem5.fast -d ./synth_outputs/simple/2b/mixed/mclb_hops_4_6_40cpus_4xdirs_4.0GHz/coh/lpbt_s_power/0_195/ configs/auto_top/auto_top_synth.py --topology EscapeVirtualNetworks --noi_routers 20 --sim-cycles 2147483647 --injectionrate 0.195 --noc_clk 4.0GHz --sys-clock 4.0GHz --ruby-clock 4.0GHz --noi_clk 3.6GHz --router_map_file configs/topologies/paper_solutions/lpbt_s_power.map --flat_vn_map_file configs/topologies/vn_maps_mclb/lpbt_s_power_mclb_hops_4vns.vn --flat_nr_map_file configs/topologies/nr_list_mclb/lpbt_s_power_mclb.nrl --ruby --mem_or_coh coh --mem-size 320000000 --num-dirs 160 --num-cpus 40 --network garnet --mem-type SimpleMemory --routing-algorithm 2 --use_escape_vns --synth_traffic --vcs-per-vnet 6 --evn_deadlock_partition 2 --evn_n_deadlock_free 1 --evn_min_n_deadlock_free 4

info: Standard input is not a terminal, disabling listeners.
ingesting configs/topologies/vn_maps_mclb/lpbt_s_power_mclb_hops_4vns.vn
cpus(40)=[<m5.objects.GarnetSyntheticTraffic.GarnetSyntheticTraffic object at 0x7f12632d1048>, <m5.objects.GarnetSyntheticTraffic.GarnetSyntheticTraffic object at 0x7f12632d1e10>, <m5.objects.GarnetSyntheticTraffic.GarnetSyntheticTraffic object at 0x7f1262e4d128>, <m5.objects.GarnetSyntheticTraffic.GarnetSyntheticTraffic object at 0x7f1262e4d400>, <m5.objects.GarnetSyntheticTraffic.GarnetSyntheticTraffic object at 0x7f1262e4d6d8>, <m5.objects.GarnetSyntheticTraffic.GarnetSyntheticTraffic object at 0x7f1262e4d9b0>, <m5.objects.GarnetSyntheticTraffic.GarnetSyntheticTraffic object at 0x7f1262e4dc88>, <m5.objects.GarnetSyntheticTraffic.GarnetSyntheticTraffic object at 0x7f1262e4df60>, <m5.objects.GarnetSyntheticTraffic.GarnetSyntheticTraffic object at 0x7f1262e56278>, <m5.objects.GarnetSyntheticTraffic.GarnetSyntheticTraffic object at 0x7f1262e56550>, <m5.objects.GarnetSyntheticTraffic.GarnetSyntheticTraffic object at 0x7f1262e56828>, <m5.objects.GarnetSyntheticTraffic.GarnetSyntheticTraffic object at 0x7f1262e56b00>, <m5.objects.GarnetSyntheticTraffic.GarnetSyntheticTraffic object at 0x7f12632d1860>, <m5.objects.GarnetSyntheticTraffic.GarnetSyntheticTraffic object at 0x7f12632c0eb8>, <m5.objects.GarnetSyntheticTraffic.GarnetSyntheticTraffic object at 0x7f12632ca6d8>, <m5.objects.GarnetSyntheticTraffic.GarnetSyntheticTraffic object at 0x7f12632cad30>, <m5.objects.GarnetSyntheticTraffic.GarnetSyntheticTraffic object at 0x7f1262e56d68>, <m5.objects.GarnetSyntheticTraffic.GarnetSyntheticTraffic object at 0x7f1262e62080>, <m5.objects.GarnetSyntheticTraffic.GarnetSyntheticTraffic object at 0x7f1262e62358>, <m5.objects.GarnetSyntheticTraffic.GarnetSyntheticTraffic object at 0x7f1262e62630>, <m5.objects.GarnetSyntheticTraffic.GarnetSyntheticTraffic object at 0x7f1262e62908>, <m5.objects.GarnetSyntheticTraffic.GarnetSyntheticTraffic object at 0x7f1262e62be0>, <m5.objects.GarnetSyntheticTraffic.GarnetSyntheticTraffic object at 0x7f1262e62eb8>, <m5.objects.GarnetSyntheticTraffic.GarnetSyntheticTraffic object at 0x7f1262e691d0>, <m5.objects.GarnetSyntheticTraffic.GarnetSyntheticTraffic object at 0x7f1262e694a8>, <m5.objects.GarnetSyntheticTraffic.GarnetSyntheticTraffic object at 0x7f1262e69780>, <m5.objects.GarnetSyntheticTraffic.GarnetSyntheticTraffic object at 0x7f1262e69a58>, <m5.objects.GarnetSyntheticTraffic.GarnetSyntheticTraffic object at 0x7f1262e69d30>, <m5.objects.GarnetSyntheticTraffic.GarnetSyntheticTraffic object at 0x7f1262e71048>, <m5.objects.GarnetSyntheticTraffic.GarnetSyntheticTraffic object at 0x7f1262e71320>, <m5.objects.GarnetSyntheticTraffic.GarnetSyntheticTraffic object at 0x7f1262e715f8>, <m5.objects.GarnetSyntheticTraffic.GarnetSyntheticTraffic object at 0x7f1262e718d0>, <m5.objects.GarnetSyntheticTraffic.GarnetSyntheticTraffic object at 0x7f1262e71ba8>, <m5.objects.GarnetSyntheticTraffic.GarnetSyntheticTraffic object at 0x7f1262e71e80>, <m5.objects.GarnetSyntheticTraffic.GarnetSyntheticTraffic object at 0x7f1262e7a198>, <m5.objects.GarnetSyntheticTraffic.GarnetSyntheticTraffic object at 0x7f1262e7a470>, <m5.objects.GarnetSyntheticTraffic.GarnetSyntheticTraffic object at 0x7f1262e7a748>, <m5.objects.GarnetSyntheticTraffic.GarnetSyntheticTraffic object at 0x7f1262e7aa20>, <m5.objects.GarnetSyntheticTraffic.GarnetSyntheticTraffic object at 0x7f1262e7acf8>, <m5.objects.GarnetSyntheticTraffic.GarnetSyntheticTraffic object at 0x7f1262e7afd0>])
ingesting configs/topologies/nr_list_mclb/lpbt_s_power_mclb.nrl
ingesting configs/topologies/vn_maps_mclb/lpbt_s_power_mclb_hops_4vns.vn
ext_cdc_required = True
