gem5 Simulator System.  https://www.gem5.org
gem5 is copyrighted software; use the --copyright option for details.

gem5 version 22.0.0.2
gem5 compiled Jun 17 2023 14:31:12
gem5 started Nov 18 2023 15:50:14
gem5 executing on mnemosyne14.ecn.purdue.edu, pid 23821
command line: ./build/Garnet_standalone/gem5.fast -d ./synth_outputs/simple/2b/mixed/mclb_hops_4_6_40cpus_4xdirs_4.0GHz/coh/kite_small/0_18/ configs/auto_top/auto_top_synth.py --topology EscapeVirtualNetworks --noi_routers 20 --sim-cycles 2147483647 --injectionrate 0.18 --noc_clk 4.0GHz --sys-clock 4.0GHz --ruby-clock 4.0GHz --noi_clk 3.6GHz --router_map_file configs/topologies/paper_solutions/kite_small.map --flat_vn_map_file configs/topologies/vn_maps_mclb/kite_small_mclb_hops_4vns.vn --flat_nr_map_file configs/topologies/nr_list_mclb/kite_small_mclb.nrl --ruby --mem_or_coh coh --mem-size 320000000 --num-dirs 160 --num-cpus 40 --network garnet --mem-type SimpleMemory --routing-algorithm 2 --use_escape_vns --synth_traffic --vcs-per-vnet 6 --evn_deadlock_partition 2 --evn_n_deadlock_free 1 --evn_min_n_deadlock_free 4

info: Standard input is not a terminal, disabling listeners.
ingesting configs/topologies/vn_maps_mclb/kite_small_mclb_hops_4vns.vn
cpus(40)=[<m5.objects.GarnetSyntheticTraffic.GarnetSyntheticTraffic object at 0x7f3050aaf048>, <m5.objects.GarnetSyntheticTraffic.GarnetSyntheticTraffic object at 0x7f3050aafe10>, <m5.objects.GarnetSyntheticTraffic.GarnetSyntheticTraffic object at 0x7f305062d128>, <m5.objects.GarnetSyntheticTraffic.GarnetSyntheticTraffic object at 0x7f305062d400>, <m5.objects.GarnetSyntheticTraffic.GarnetSyntheticTraffic object at 0x7f305062d6d8>, <m5.objects.GarnetSyntheticTraffic.GarnetSyntheticTraffic object at 0x7f305062d9b0>, <m5.objects.GarnetSyntheticTraffic.GarnetSyntheticTraffic object at 0x7f305062dc88>, <m5.objects.GarnetSyntheticTraffic.GarnetSyntheticTraffic object at 0x7f305062df60>, <m5.objects.GarnetSyntheticTraffic.GarnetSyntheticTraffic object at 0x7f3050636278>, <m5.objects.GarnetSyntheticTraffic.GarnetSyntheticTraffic object at 0x7f3050636550>, <m5.objects.GarnetSyntheticTraffic.GarnetSyntheticTraffic object at 0x7f3050636828>, <m5.objects.GarnetSyntheticTraffic.GarnetSyntheticTraffic object at 0x7f3050636b00>, <m5.objects.GarnetSyntheticTraffic.GarnetSyntheticTraffic object at 0x7f3050aaf860>, <m5.objects.GarnetSyntheticTraffic.GarnetSyntheticTraffic object at 0x7f3050aa0eb8>, <m5.objects.GarnetSyntheticTraffic.GarnetSyntheticTraffic object at 0x7f3050aaa6d8>, <m5.objects.GarnetSyntheticTraffic.GarnetSyntheticTraffic object at 0x7f3050aaad30>, <m5.objects.GarnetSyntheticTraffic.GarnetSyntheticTraffic object at 0x7f3050636d68>, <m5.objects.GarnetSyntheticTraffic.GarnetSyntheticTraffic object at 0x7f3050642080>, <m5.objects.GarnetSyntheticTraffic.GarnetSyntheticTraffic object at 0x7f3050642358>, <m5.objects.GarnetSyntheticTraffic.GarnetSyntheticTraffic object at 0x7f3050642630>, <m5.objects.GarnetSyntheticTraffic.GarnetSyntheticTraffic object at 0x7f3050642908>, <m5.objects.GarnetSyntheticTraffic.GarnetSyntheticTraffic object at 0x7f3050642be0>, <m5.objects.GarnetSyntheticTraffic.GarnetSyntheticTraffic object at 0x7f3050642eb8>, <m5.objects.GarnetSyntheticTraffic.GarnetSyntheticTraffic object at 0x7f30506491d0>, <m5.objects.GarnetSyntheticTraffic.GarnetSyntheticTraffic object at 0x7f30506494a8>, <m5.objects.GarnetSyntheticTraffic.GarnetSyntheticTraffic object at 0x7f3050649780>, <m5.objects.GarnetSyntheticTraffic.GarnetSyntheticTraffic object at 0x7f3050649a58>, <m5.objects.GarnetSyntheticTraffic.GarnetSyntheticTraffic object at 0x7f3050649d30>, <m5.objects.GarnetSyntheticTraffic.GarnetSyntheticTraffic object at 0x7f3050651048>, <m5.objects.GarnetSyntheticTraffic.GarnetSyntheticTraffic object at 0x7f3050651320>, <m5.objects.GarnetSyntheticTraffic.GarnetSyntheticTraffic object at 0x7f30506515f8>, <m5.objects.GarnetSyntheticTraffic.GarnetSyntheticTraffic object at 0x7f30506518d0>, <m5.objects.GarnetSyntheticTraffic.GarnetSyntheticTraffic object at 0x7f3050651ba8>, <m5.objects.GarnetSyntheticTraffic.GarnetSyntheticTraffic object at 0x7f3050651e80>, <m5.objects.GarnetSyntheticTraffic.GarnetSyntheticTraffic object at 0x7f305065a198>, <m5.objects.GarnetSyntheticTraffic.GarnetSyntheticTraffic object at 0x7f305065a470>, <m5.objects.GarnetSyntheticTraffic.GarnetSyntheticTraffic object at 0x7f305065a748>, <m5.objects.GarnetSyntheticTraffic.GarnetSyntheticTraffic object at 0x7f305065aa20>, <m5.objects.GarnetSyntheticTraffic.GarnetSyntheticTraffic object at 0x7f305065acf8>, <m5.objects.GarnetSyntheticTraffic.GarnetSyntheticTraffic object at 0x7f305065afd0>])
ingesting configs/topologies/nr_list_mclb/kite_small_mclb.nrl
ingesting configs/topologies/vn_maps_mclb/kite_small_mclb_hops_4vns.vn
ext_cdc_required = True
