
---------- Begin Simulation Statistics ----------
simSeconds                                   0.002147                       # Number of seconds simulated (Second)
simTicks                                   2147483750                       # Number of ticks simulated (Tick)
finalTick                                  2147483750                       # Number of ticks from beginning of simulation (restored from checkpoints and never reset) (Tick)
simFreq                                  1000000000000                       # The number of ticks per simulated second ((Tick/Second))
hostSeconds                                   5429.66                       # Real time elapsed on the host (Second)
hostTickRate                                   395510                       # The number of ticks simulated per host second (ticks/s) ((Tick/Second))
hostMemory                                    6038608                       # Number of bytes of host memory used (Byte)
system.clk_domain.clock                           250                       # Clock period in ticks (Tick)
system.cpu0.power_state.pwrStateResidencyTicks::UNDEFINED   2147483750                       # Cumulative time (in ticks) in various power states (Tick)
system.cpu1.power_state.pwrStateResidencyTicks::UNDEFINED   2147483750                       # Cumulative time (in ticks) in various power states (Tick)
system.cpu10.power_state.pwrStateResidencyTicks::UNDEFINED   2147483750                       # Cumulative time (in ticks) in various power states (Tick)
system.cpu11.power_state.pwrStateResidencyTicks::UNDEFINED   2147483750                       # Cumulative time (in ticks) in various power states (Tick)
system.cpu12.power_state.pwrStateResidencyTicks::UNDEFINED   2147483750                       # Cumulative time (in ticks) in various power states (Tick)
system.cpu13.power_state.pwrStateResidencyTicks::UNDEFINED   2147483750                       # Cumulative time (in ticks) in various power states (Tick)
system.cpu14.power_state.pwrStateResidencyTicks::UNDEFINED   2147483750                       # Cumulative time (in ticks) in various power states (Tick)
system.cpu15.power_state.pwrStateResidencyTicks::UNDEFINED   2147483750                       # Cumulative time (in ticks) in various power states (Tick)
system.cpu16.power_state.pwrStateResidencyTicks::UNDEFINED   2147483750                       # Cumulative time (in ticks) in various power states (Tick)
system.cpu17.power_state.pwrStateResidencyTicks::UNDEFINED   2147483750                       # Cumulative time (in ticks) in various power states (Tick)
system.cpu18.power_state.pwrStateResidencyTicks::UNDEFINED   2147483750                       # Cumulative time (in ticks) in various power states (Tick)
system.cpu19.power_state.pwrStateResidencyTicks::UNDEFINED   2147483750                       # Cumulative time (in ticks) in various power states (Tick)
system.cpu2.power_state.pwrStateResidencyTicks::UNDEFINED   2147483750                       # Cumulative time (in ticks) in various power states (Tick)
system.cpu20.power_state.pwrStateResidencyTicks::UNDEFINED   2147483750                       # Cumulative time (in ticks) in various power states (Tick)
system.cpu21.power_state.pwrStateResidencyTicks::UNDEFINED   2147483750                       # Cumulative time (in ticks) in various power states (Tick)
system.cpu22.power_state.pwrStateResidencyTicks::UNDEFINED   2147483750                       # Cumulative time (in ticks) in various power states (Tick)
system.cpu23.power_state.pwrStateResidencyTicks::UNDEFINED   2147483750                       # Cumulative time (in ticks) in various power states (Tick)
system.cpu24.power_state.pwrStateResidencyTicks::UNDEFINED   2147483750                       # Cumulative time (in ticks) in various power states (Tick)
system.cpu25.power_state.pwrStateResidencyTicks::UNDEFINED   2147483750                       # Cumulative time (in ticks) in various power states (Tick)
system.cpu26.power_state.pwrStateResidencyTicks::UNDEFINED   2147483750                       # Cumulative time (in ticks) in various power states (Tick)
system.cpu27.power_state.pwrStateResidencyTicks::UNDEFINED   2147483750                       # Cumulative time (in ticks) in various power states (Tick)
system.cpu28.power_state.pwrStateResidencyTicks::UNDEFINED   2147483750                       # Cumulative time (in ticks) in various power states (Tick)
system.cpu29.power_state.pwrStateResidencyTicks::UNDEFINED   2147483750                       # Cumulative time (in ticks) in various power states (Tick)
system.cpu3.power_state.pwrStateResidencyTicks::UNDEFINED   2147483750                       # Cumulative time (in ticks) in various power states (Tick)
system.cpu30.power_state.pwrStateResidencyTicks::UNDEFINED   2147483750                       # Cumulative time (in ticks) in various power states (Tick)
system.cpu31.power_state.pwrStateResidencyTicks::UNDEFINED   2147483750                       # Cumulative time (in ticks) in various power states (Tick)
system.cpu32.power_state.pwrStateResidencyTicks::UNDEFINED   2147483750                       # Cumulative time (in ticks) in various power states (Tick)
system.cpu33.power_state.pwrStateResidencyTicks::UNDEFINED   2147483750                       # Cumulative time (in ticks) in various power states (Tick)
system.cpu34.power_state.pwrStateResidencyTicks::UNDEFINED   2147483750                       # Cumulative time (in ticks) in various power states (Tick)
system.cpu35.power_state.pwrStateResidencyTicks::UNDEFINED   2147483750                       # Cumulative time (in ticks) in various power states (Tick)
system.cpu36.power_state.pwrStateResidencyTicks::UNDEFINED   2147483750                       # Cumulative time (in ticks) in various power states (Tick)
system.cpu37.power_state.pwrStateResidencyTicks::UNDEFINED   2147483750                       # Cumulative time (in ticks) in various power states (Tick)
system.cpu38.power_state.pwrStateResidencyTicks::UNDEFINED   2147483750                       # Cumulative time (in ticks) in various power states (Tick)
system.cpu39.power_state.pwrStateResidencyTicks::UNDEFINED   2147483750                       # Cumulative time (in ticks) in various power states (Tick)
system.cpu4.power_state.pwrStateResidencyTicks::UNDEFINED   2147483750                       # Cumulative time (in ticks) in various power states (Tick)
system.cpu5.power_state.pwrStateResidencyTicks::UNDEFINED   2147483750                       # Cumulative time (in ticks) in various power states (Tick)
system.cpu6.power_state.pwrStateResidencyTicks::UNDEFINED   2147483750                       # Cumulative time (in ticks) in various power states (Tick)
system.cpu7.power_state.pwrStateResidencyTicks::UNDEFINED   2147483750                       # Cumulative time (in ticks) in various power states (Tick)
system.cpu8.power_state.pwrStateResidencyTicks::UNDEFINED   2147483750                       # Cumulative time (in ticks) in various power states (Tick)
system.cpu9.power_state.pwrStateResidencyTicks::UNDEFINED   2147483750                       # Cumulative time (in ticks) in various power states (Tick)
system.mem_ctrls0.power_state.pwrStateResidencyTicks::UNDEFINED   2147483750                       # Cumulative time (in ticks) in various power states (Tick)
system.mem_ctrls1.power_state.pwrStateResidencyTicks::UNDEFINED   2147483750                       # Cumulative time (in ticks) in various power states (Tick)
system.mem_ctrls10.power_state.pwrStateResidencyTicks::UNDEFINED   2147483750                       # Cumulative time (in ticks) in various power states (Tick)
system.mem_ctrls11.power_state.pwrStateResidencyTicks::UNDEFINED   2147483750                       # Cumulative time (in ticks) in various power states (Tick)
system.mem_ctrls12.power_state.pwrStateResidencyTicks::UNDEFINED   2147483750                       # Cumulative time (in ticks) in various power states (Tick)
system.mem_ctrls13.power_state.pwrStateResidencyTicks::UNDEFINED   2147483750                       # Cumulative time (in ticks) in various power states (Tick)
system.mem_ctrls14.power_state.pwrStateResidencyTicks::UNDEFINED   2147483750                       # Cumulative time (in ticks) in various power states (Tick)
system.mem_ctrls15.power_state.pwrStateResidencyTicks::UNDEFINED   2147483750                       # Cumulative time (in ticks) in various power states (Tick)
system.mem_ctrls16.power_state.pwrStateResidencyTicks::UNDEFINED   2147483750                       # Cumulative time (in ticks) in various power states (Tick)
system.mem_ctrls17.power_state.pwrStateResidencyTicks::UNDEFINED   2147483750                       # Cumulative time (in ticks) in various power states (Tick)
system.mem_ctrls18.power_state.pwrStateResidencyTicks::UNDEFINED   2147483750                       # Cumulative time (in ticks) in various power states (Tick)
system.mem_ctrls19.power_state.pwrStateResidencyTicks::UNDEFINED   2147483750                       # Cumulative time (in ticks) in various power states (Tick)
system.mem_ctrls2.power_state.pwrStateResidencyTicks::UNDEFINED   2147483750                       # Cumulative time (in ticks) in various power states (Tick)
system.mem_ctrls20.power_state.pwrStateResidencyTicks::UNDEFINED   2147483750                       # Cumulative time (in ticks) in various power states (Tick)
system.mem_ctrls21.power_state.pwrStateResidencyTicks::UNDEFINED   2147483750                       # Cumulative time (in ticks) in various power states (Tick)
system.mem_ctrls22.power_state.pwrStateResidencyTicks::UNDEFINED   2147483750                       # Cumulative time (in ticks) in various power states (Tick)
system.mem_ctrls23.power_state.pwrStateResidencyTicks::UNDEFINED   2147483750                       # Cumulative time (in ticks) in various power states (Tick)
system.mem_ctrls24.power_state.pwrStateResidencyTicks::UNDEFINED   2147483750                       # Cumulative time (in ticks) in various power states (Tick)
system.mem_ctrls25.power_state.pwrStateResidencyTicks::UNDEFINED   2147483750                       # Cumulative time (in ticks) in various power states (Tick)
system.mem_ctrls26.power_state.pwrStateResidencyTicks::UNDEFINED   2147483750                       # Cumulative time (in ticks) in various power states (Tick)
system.mem_ctrls27.power_state.pwrStateResidencyTicks::UNDEFINED   2147483750                       # Cumulative time (in ticks) in various power states (Tick)
system.mem_ctrls28.power_state.pwrStateResidencyTicks::UNDEFINED   2147483750                       # Cumulative time (in ticks) in various power states (Tick)
system.mem_ctrls29.power_state.pwrStateResidencyTicks::UNDEFINED   2147483750                       # Cumulative time (in ticks) in various power states (Tick)
system.mem_ctrls3.power_state.pwrStateResidencyTicks::UNDEFINED   2147483750                       # Cumulative time (in ticks) in various power states (Tick)
system.mem_ctrls30.power_state.pwrStateResidencyTicks::UNDEFINED   2147483750                       # Cumulative time (in ticks) in various power states (Tick)
system.mem_ctrls31.power_state.pwrStateResidencyTicks::UNDEFINED   2147483750                       # Cumulative time (in ticks) in various power states (Tick)
system.mem_ctrls32.power_state.pwrStateResidencyTicks::UNDEFINED   2147483750                       # Cumulative time (in ticks) in various power states (Tick)
system.mem_ctrls33.power_state.pwrStateResidencyTicks::UNDEFINED   2147483750                       # Cumulative time (in ticks) in various power states (Tick)
system.mem_ctrls34.power_state.pwrStateResidencyTicks::UNDEFINED   2147483750                       # Cumulative time (in ticks) in various power states (Tick)
system.mem_ctrls35.power_state.pwrStateResidencyTicks::UNDEFINED   2147483750                       # Cumulative time (in ticks) in various power states (Tick)
system.mem_ctrls36.power_state.pwrStateResidencyTicks::UNDEFINED   2147483750                       # Cumulative time (in ticks) in various power states (Tick)
system.mem_ctrls37.power_state.pwrStateResidencyTicks::UNDEFINED   2147483750                       # Cumulative time (in ticks) in various power states (Tick)
system.mem_ctrls38.power_state.pwrStateResidencyTicks::UNDEFINED   2147483750                       # Cumulative time (in ticks) in various power states (Tick)
system.mem_ctrls39.power_state.pwrStateResidencyTicks::UNDEFINED   2147483750                       # Cumulative time (in ticks) in various power states (Tick)
system.mem_ctrls4.power_state.pwrStateResidencyTicks::UNDEFINED   2147483750                       # Cumulative time (in ticks) in various power states (Tick)
system.mem_ctrls40.power_state.pwrStateResidencyTicks::UNDEFINED   2147483750                       # Cumulative time (in ticks) in various power states (Tick)
system.mem_ctrls41.power_state.pwrStateResidencyTicks::UNDEFINED   2147483750                       # Cumulative time (in ticks) in various power states (Tick)
system.mem_ctrls42.power_state.pwrStateResidencyTicks::UNDEFINED   2147483750                       # Cumulative time (in ticks) in various power states (Tick)
system.mem_ctrls43.power_state.pwrStateResidencyTicks::UNDEFINED   2147483750                       # Cumulative time (in ticks) in various power states (Tick)
system.mem_ctrls44.power_state.pwrStateResidencyTicks::UNDEFINED   2147483750                       # Cumulative time (in ticks) in various power states (Tick)
system.mem_ctrls45.power_state.pwrStateResidencyTicks::UNDEFINED   2147483750                       # Cumulative time (in ticks) in various power states (Tick)
system.mem_ctrls46.power_state.pwrStateResidencyTicks::UNDEFINED   2147483750                       # Cumulative time (in ticks) in various power states (Tick)
system.mem_ctrls47.power_state.pwrStateResidencyTicks::UNDEFINED   2147483750                       # Cumulative time (in ticks) in various power states (Tick)
system.mem_ctrls48.power_state.pwrStateResidencyTicks::UNDEFINED   2147483750                       # Cumulative time (in ticks) in various power states (Tick)
system.mem_ctrls49.power_state.pwrStateResidencyTicks::UNDEFINED   2147483750                       # Cumulative time (in ticks) in various power states (Tick)
system.mem_ctrls5.power_state.pwrStateResidencyTicks::UNDEFINED   2147483750                       # Cumulative time (in ticks) in various power states (Tick)
system.mem_ctrls50.power_state.pwrStateResidencyTicks::UNDEFINED   2147483750                       # Cumulative time (in ticks) in various power states (Tick)
system.mem_ctrls51.power_state.pwrStateResidencyTicks::UNDEFINED   2147483750                       # Cumulative time (in ticks) in various power states (Tick)
system.mem_ctrls52.power_state.pwrStateResidencyTicks::UNDEFINED   2147483750                       # Cumulative time (in ticks) in various power states (Tick)
system.mem_ctrls53.power_state.pwrStateResidencyTicks::UNDEFINED   2147483750                       # Cumulative time (in ticks) in various power states (Tick)
system.mem_ctrls54.power_state.pwrStateResidencyTicks::UNDEFINED   2147483750                       # Cumulative time (in ticks) in various power states (Tick)
system.mem_ctrls55.power_state.pwrStateResidencyTicks::UNDEFINED   2147483750                       # Cumulative time (in ticks) in various power states (Tick)
system.mem_ctrls56.power_state.pwrStateResidencyTicks::UNDEFINED   2147483750                       # Cumulative time (in ticks) in various power states (Tick)
system.mem_ctrls57.power_state.pwrStateResidencyTicks::UNDEFINED   2147483750                       # Cumulative time (in ticks) in various power states (Tick)
system.mem_ctrls58.power_state.pwrStateResidencyTicks::UNDEFINED   2147483750                       # Cumulative time (in ticks) in various power states (Tick)
system.mem_ctrls59.power_state.pwrStateResidencyTicks::UNDEFINED   2147483750                       # Cumulative time (in ticks) in various power states (Tick)
system.mem_ctrls6.power_state.pwrStateResidencyTicks::UNDEFINED   2147483750                       # Cumulative time (in ticks) in various power states (Tick)
system.mem_ctrls60.power_state.pwrStateResidencyTicks::UNDEFINED   2147483750                       # Cumulative time (in ticks) in various power states (Tick)
system.mem_ctrls61.power_state.pwrStateResidencyTicks::UNDEFINED   2147483750                       # Cumulative time (in ticks) in various power states (Tick)
system.mem_ctrls62.power_state.pwrStateResidencyTicks::UNDEFINED   2147483750                       # Cumulative time (in ticks) in various power states (Tick)
system.mem_ctrls63.power_state.pwrStateResidencyTicks::UNDEFINED   2147483750                       # Cumulative time (in ticks) in various power states (Tick)
system.mem_ctrls7.power_state.pwrStateResidencyTicks::UNDEFINED   2147483750                       # Cumulative time (in ticks) in various power states (Tick)
system.mem_ctrls8.power_state.pwrStateResidencyTicks::UNDEFINED   2147483750                       # Cumulative time (in ticks) in various power states (Tick)
system.mem_ctrls9.power_state.pwrStateResidencyTicks::UNDEFINED   2147483750                       # Cumulative time (in ticks) in various power states (Tick)
system.ruby.m_outstandReqHistSeqr::bucket_size            1                       (Unspecified)
system.ruby.m_outstandReqHistSeqr::max_bucket            9                       (Unspecified)
system.ruby.m_outstandReqHistSeqr::samples     39469342                       (Unspecified)
system.ruby.m_outstandReqHistSeqr::mean             1                       (Unspecified)
system.ruby.m_outstandReqHistSeqr::gmean            1                       (Unspecified)
system.ruby.m_outstandReqHistSeqr        |           0      0.00%      0.00% |    39469342    100.00%    100.00% |           0      0.00%    100.00% |           0      0.00%    100.00% |           0      0.00%    100.00% |           0      0.00%    100.00% |           0      0.00%    100.00% |           0      0.00%    100.00% |           0      0.00%    100.00% |           0      0.00%    100.00% (Unspecified)
system.ruby.m_outstandReqHistSeqr::total     39469342                       (Unspecified)
system.ruby.m_latencyHistSeqr::bucket_size            1                       (Unspecified)
system.ruby.m_latencyHistSeqr::max_bucket            9                       (Unspecified)
system.ruby.m_latencyHistSeqr::samples       39469338                       (Unspecified)
system.ruby.m_latencyHistSeqr::mean                 1                       (Unspecified)
system.ruby.m_latencyHistSeqr::gmean                1                       (Unspecified)
system.ruby.m_latencyHistSeqr            |           0      0.00%      0.00% |    39469338    100.00%    100.00% |           0      0.00%    100.00% |           0      0.00%    100.00% |           0      0.00%    100.00% |           0      0.00%    100.00% |           0      0.00%    100.00% |           0      0.00%    100.00% |           0      0.00%    100.00% |           0      0.00%    100.00% (Unspecified)
system.ruby.m_latencyHistSeqr::total         39469338                       (Unspecified)
system.ruby.m_hitLatencyHistSeqr::bucket_size            1                       (Unspecified)
system.ruby.m_hitLatencyHistSeqr::max_bucket            9                       (Unspecified)
system.ruby.m_hitLatencyHistSeqr::samples     39469338                       (Unspecified)
system.ruby.m_hitLatencyHistSeqr::mean              1                       (Unspecified)
system.ruby.m_hitLatencyHistSeqr::gmean             1                       (Unspecified)
system.ruby.m_hitLatencyHistSeqr         |           0      0.00%      0.00% |    39469338    100.00%    100.00% |           0      0.00%    100.00% |           0      0.00%    100.00% |           0      0.00%    100.00% |           0      0.00%    100.00% |           0      0.00%    100.00% |           0      0.00%    100.00% |           0      0.00%    100.00% |           0      0.00%    100.00% (Unspecified)
system.ruby.m_hitLatencyHistSeqr::total      39469338                       (Unspecified)
system.ruby.Directory_Controller.Receive_Request |      307621      1.56%      1.56% |      308515      1.56%      3.12% |      308490      1.56%      4.68% |      308933      1.57%      6.25% |      308485      1.56%      7.81% |      307721      1.56%      9.37% |      308174      1.56%     10.93% |      308658      1.56%     12.50% |      309028      1.57%     14.06% |      307648      1.56%     15.62% |      308519      1.56%     17.19% |      309782      1.57%     18.76% |      308763      1.56%     20.32% |      308516      1.56%     21.88% |      308051      1.56%     23.44% |      308442      1.56%     25.01% |      307916      1.56%     26.57% |      308416      1.56%     28.13% |      308273      1.56%     29.69% |      308357      1.56%     31.25% |      308680      1.56%     32.82% |      307851      1.56%     34.38% |      308055      1.56%     35.94% |      308623      1.56%     37.50% |      308029      1.56%     39.06% |      308136      1.56%     40.62% |      308483      1.56%     42.19% |      307980      1.56%     43.75% |      308111      1.56%     45.31% |      307924      1.56%     46.87% |      309027      1.57%     48.43% |      307698      1.56%     49.99% |      307571      1.56%     51.55% |      308059      1.56%     53.11% |      308697      1.56%     54.68% |      308488      1.56%     56.24% |      309319      1.57%     57.81% |      309643      1.57%     59.38% |      308874      1.56%     60.94% |      308464      1.56%     62.50% |      308911      1.57%     64.07% |      307508      1.56%     65.63% |      308598      1.56%     67.19% |      308222      1.56%     68.75% |      308819      1.56%     70.32% |      308926      1.57%     71.88% |      308383      1.56%     73.44% |      308210      1.56%     75.01% |      307015      1.56%     76.56% |      309275      1.57%     78.13% |      307672      1.56%     79.69% |      308705      1.56%     81.25% |      308179      1.56%     82.81% |      308668      1.56%     84.38% |      307219      1.56%     85.93% |      308545      1.56%     87.50% |      307936      1.56%     89.06% |      307805      1.56%     90.62% |      308492      1.56%     92.18% |      308335      1.56%     93.74% |      308501      1.56%     95.31% |      309048      1.57%     96.87% |      308718      1.56%     98.44% |      308751      1.56%    100.00% (Unspecified)
system.ruby.Directory_Controller.Receive_Request::total     19736461                       (Unspecified)
system.ruby.Directory_Controller.Receive_Response |      234915      1.56%      1.56% |      234367      1.56%      3.12% |      234094      1.56%      4.68% |      235073      1.57%      6.25% |      235081      1.57%      7.81% |      234162      1.56%      9.37% |      233311      1.55%     10.93% |      233766      1.56%     12.48% |      234609      1.56%     14.04% |      234419      1.56%     15.61% |      234722      1.56%     17.17% |      234634      1.56%     18.73% |      233972      1.56%     20.29% |      235543      1.57%     21.86% |      234803      1.56%     23.42% |      234779      1.56%     24.98% |      234710      1.56%     26.55% |      234679      1.56%     28.11% |      235058      1.57%     29.67% |      234507      1.56%     31.24% |      234834      1.56%     32.80% |      234523      1.56%     34.36% |      234207      1.56%     35.92% |      235184      1.57%     37.49% |      234246      1.56%     39.05% |      234853      1.56%     40.61% |      235097      1.57%     42.17% |      234358      1.56%     43.74% |      234077      1.56%     45.29% |      234422      1.56%     46.85% |      234492      1.56%     48.42% |      234392      1.56%     49.98% |      235382      1.57%     51.54% |      234586      1.56%     53.11% |      235233      1.57%     54.67% |      234292      1.56%     56.23% |      233932      1.56%     57.79% |      234572      1.56%     59.35% |      234780      1.56%     60.91% |      234849      1.56%     62.48% |      235656      1.57%     64.05% |      233768      1.56%     65.60% |      234984      1.56%     67.17% |      233760      1.56%     68.73% |      235650      1.57%     70.29% |      235189      1.57%     71.86% |      235351      1.57%     73.43% |      234329      1.56%     74.99% |      234702      1.56%     76.55% |      234136      1.56%     78.11% |      234006      1.56%     79.67% |      234724      1.56%     81.23% |      234581      1.56%     82.79% |      234943      1.56%     84.36% |      234504      1.56%     85.92% |      235445      1.57%     87.49% |      234630      1.56%     89.05% |      235600      1.57%     90.62% |      235080      1.57%     92.18% |      234615      1.56%     93.74% |      234922      1.56%     95.31% |      234678      1.56%     96.87% |      234814      1.56%     98.43% |      235205      1.57%    100.00% (Unspecified)
system.ruby.Directory_Controller.Receive_Response::total     15018787                       (Unspecified)
system.ruby.Directory_Controller.I.Receive_Request |      307621      1.56%      1.56% |      308515      1.56%      3.12% |      308490      1.56%      4.68% |      308933      1.57%      6.25% |      308485      1.56%      7.81% |      307721      1.56%      9.37% |      308174      1.56%     10.93% |      308658      1.56%     12.50% |      309028      1.57%     14.06% |      307648      1.56%     15.62% |      308519      1.56%     17.19% |      309782      1.57%     18.76% |      308763      1.56%     20.32% |      308516      1.56%     21.88% |      308051      1.56%     23.44% |      308442      1.56%     25.01% |      307916      1.56%     26.57% |      308416      1.56%     28.13% |      308273      1.56%     29.69% |      308357      1.56%     31.25% |      308680      1.56%     32.82% |      307851      1.56%     34.38% |      308055      1.56%     35.94% |      308623      1.56%     37.50% |      308029      1.56%     39.06% |      308136      1.56%     40.62% |      308483      1.56%     42.19% |      307980      1.56%     43.75% |      308111      1.56%     45.31% |      307924      1.56%     46.87% |      309027      1.57%     48.43% |      307698      1.56%     49.99% |      307571      1.56%     51.55% |      308059      1.56%     53.11% |      308697      1.56%     54.68% |      308488      1.56%     56.24% |      309319      1.57%     57.81% |      309643      1.57%     59.38% |      308874      1.56%     60.94% |      308464      1.56%     62.50% |      308911      1.57%     64.07% |      307508      1.56%     65.63% |      308598      1.56%     67.19% |      308222      1.56%     68.75% |      308819      1.56%     70.32% |      308926      1.57%     71.88% |      308383      1.56%     73.44% |      308210      1.56%     75.01% |      307015      1.56%     76.56% |      309275      1.57%     78.13% |      307672      1.56%     79.69% |      308705      1.56%     81.25% |      308179      1.56%     82.81% |      308668      1.56%     84.38% |      307219      1.56%     85.93% |      308545      1.56%     87.50% |      307936      1.56%     89.06% |      307805      1.56%     90.62% |      308492      1.56%     92.18% |      308335      1.56%     93.74% |      308501      1.56%     95.31% |      309048      1.57%     96.87% |      308718      1.56%     98.44% |      308751      1.56%    100.00% (Unspecified)
system.ruby.Directory_Controller.I.Receive_Request::total     19736461                       (Unspecified)
system.ruby.Directory_Controller.I.Receive_Response |      234915      1.56%      1.56% |      234367      1.56%      3.12% |      234094      1.56%      4.68% |      235073      1.57%      6.25% |      235081      1.57%      7.81% |      234162      1.56%      9.37% |      233311      1.55%     10.93% |      233766      1.56%     12.48% |      234609      1.56%     14.04% |      234419      1.56%     15.61% |      234722      1.56%     17.17% |      234634      1.56%     18.73% |      233972      1.56%     20.29% |      235543      1.57%     21.86% |      234803      1.56%     23.42% |      234779      1.56%     24.98% |      234710      1.56%     26.55% |      234679      1.56%     28.11% |      235058      1.57%     29.67% |      234507      1.56%     31.24% |      234834      1.56%     32.80% |      234523      1.56%     34.36% |      234207      1.56%     35.92% |      235184      1.57%     37.49% |      234246      1.56%     39.05% |      234853      1.56%     40.61% |      235097      1.57%     42.17% |      234358      1.56%     43.74% |      234077      1.56%     45.29% |      234422      1.56%     46.85% |      234492      1.56%     48.42% |      234392      1.56%     49.98% |      235382      1.57%     51.54% |      234586      1.56%     53.11% |      235233      1.57%     54.67% |      234292      1.56%     56.23% |      233932      1.56%     57.79% |      234572      1.56%     59.35% |      234780      1.56%     60.91% |      234849      1.56%     62.48% |      235656      1.57%     64.05% |      233768      1.56%     65.60% |      234984      1.56%     67.17% |      233760      1.56%     68.73% |      235650      1.57%     70.29% |      235189      1.57%     71.86% |      235351      1.57%     73.43% |      234329      1.56%     74.99% |      234702      1.56%     76.55% |      234136      1.56%     78.11% |      234006      1.56%     79.67% |      234724      1.56%     81.23% |      234581      1.56%     82.79% |      234943      1.56%     84.36% |      234504      1.56%     85.92% |      235445      1.57%     87.49% |      234630      1.56%     89.05% |      235600      1.57%     90.62% |      235080      1.57%     92.18% |      234615      1.56%     93.74% |      234922      1.56%     95.31% |      234678      1.56%     96.87% |      234814      1.56%     98.43% |      235205      1.57%    100.00% (Unspecified)
system.ruby.Directory_Controller.I.Receive_Response::total     15018787                       (Unspecified)
system.ruby.L1Cache_Controller.Request   |      493288      2.50%      2.50% |      492999      2.50%      5.00% |      493012      2.50%      7.50% |      493056      2.50%      9.99% |      493240      2.50%     12.49% |      493101      2.50%     14.99% |      493071      2.50%     17.49% |      493090      2.50%     19.99% |      494613      2.51%     22.49% |      493153      2.50%     24.99% |      493677      2.50%     27.49% |      492723      2.50%     29.99% |      493235      2.50%     32.49% |      493881      2.50%     34.99% |      493213      2.50%     37.49% |      493639      2.50%     39.99% |      494062      2.50%     42.50% |      494136      2.50%     45.00% |      493932      2.50%     47.50% |      492588      2.50%     50.00% |      492860      2.50%     52.49% |      492586      2.50%     54.99% |      494580      2.51%     57.50% |      493897      2.50%     60.00% |      492865      2.50%     62.50% |      493373      2.50%     65.00% |      494037      2.50%     67.50% |      493547      2.50%     70.00% |      492958      2.50%     72.50% |      494900      2.51%     75.00% |      493611      2.50%     77.51% |      492664      2.50%     80.00% |      494717      2.51%     82.51% |      493275      2.50%     85.01% |      493263      2.50%     87.51% |      493371      2.50%     90.01% |      493567      2.50%     92.51% |      492541      2.50%     95.00% |      494517      2.51%     97.51% |      491669      2.49%    100.00% (Unspecified)
system.ruby.L1Cache_Controller.Request::total     19736507                       (Unspecified)
system.ruby.L1Cache_Controller.Response  |      493318      2.50%      2.50% |      492515      2.50%      5.00% |      492939      2.50%      7.49% |      493492      2.50%      9.99% |      492941      2.50%     12.49% |      492315      2.49%     14.99% |      493615      2.50%     17.49% |      493224      2.50%     19.99% |      492343      2.50%     22.48% |      494503      2.51%     24.99% |      493451      2.50%     27.49% |      494533      2.51%     30.00% |      494054      2.50%     32.50% |      492713      2.50%     35.00% |      494031      2.50%     37.50% |      493549      2.50%     40.00% |      492989      2.50%     42.50% |      492595      2.50%     45.00% |      493321      2.50%     47.50% |      493323      2.50%     50.00% |      493261      2.50%     52.50% |      491890      2.49%     54.99% |      492471      2.50%     57.48% |      493353      2.50%     59.99% |      492160      2.49%     62.48% |      493851      2.50%     64.98% |      492980      2.50%     67.48% |      492754      2.50%     69.98% |      493493      2.50%     72.48% |      494065      2.50%     74.98% |      493137      2.50%     77.48% |      494412      2.51%     79.99% |      493458      2.50%     82.49% |      494238      2.50%     84.99% |      493992      2.50%     87.50% |      493326      2.50%     90.00% |      493273      2.50%     92.49% |      493556      2.50%     95.00% |      493167      2.50%     97.50% |      494230      2.50%    100.00% (Unspecified)
system.ruby.L1Cache_Controller.Response::total     19732831                       (Unspecified)
system.ruby.L1Cache_Controller.I.Request |      493288      2.50%      2.50% |      492999      2.50%      5.00% |      493012      2.50%      7.50% |      493056      2.50%      9.99% |      493240      2.50%     12.49% |      493101      2.50%     14.99% |      493071      2.50%     17.49% |      493090      2.50%     19.99% |      494613      2.51%     22.49% |      493153      2.50%     24.99% |      493677      2.50%     27.49% |      492723      2.50%     29.99% |      493235      2.50%     32.49% |      493881      2.50%     34.99% |      493213      2.50%     37.49% |      493639      2.50%     39.99% |      494062      2.50%     42.50% |      494136      2.50%     45.00% |      493932      2.50%     47.50% |      492588      2.50%     50.00% |      492860      2.50%     52.49% |      492586      2.50%     54.99% |      494580      2.51%     57.50% |      493897      2.50%     60.00% |      492865      2.50%     62.50% |      493373      2.50%     65.00% |      494037      2.50%     67.50% |      493547      2.50%     70.00% |      492958      2.50%     72.50% |      494900      2.51%     75.00% |      493611      2.50%     77.51% |      492664      2.50%     80.00% |      494717      2.51%     82.51% |      493275      2.50%     85.01% |      493263      2.50%     87.51% |      493371      2.50%     90.01% |      493567      2.50%     92.51% |      492541      2.50%     95.00% |      494517      2.51%     97.51% |      491669      2.49%    100.00% (Unspecified)
system.ruby.L1Cache_Controller.I.Request::total     19736507                       (Unspecified)
system.ruby.L1Cache_Controller.I.Response |      493318      2.50%      2.50% |      492515      2.50%      5.00% |      492939      2.50%      7.49% |      493492      2.50%      9.99% |      492941      2.50%     12.49% |      492315      2.49%     14.99% |      493615      2.50%     17.49% |      493224      2.50%     19.99% |      492343      2.50%     22.48% |      494503      2.51%     24.99% |      493451      2.50%     27.49% |      494533      2.51%     30.00% |      494054      2.50%     32.50% |      492713      2.50%     35.00% |      494031      2.50%     37.50% |      493549      2.50%     40.00% |      492989      2.50%     42.50% |      492595      2.50%     45.00% |      493321      2.50%     47.50% |      493323      2.50%     50.00% |      493261      2.50%     52.50% |      491890      2.49%     54.99% |      492471      2.50%     57.48% |      493353      2.50%     59.99% |      492160      2.49%     62.48% |      493851      2.50%     64.98% |      492980      2.50%     67.48% |      492754      2.50%     69.98% |      493493      2.50%     72.48% |      494065      2.50%     74.98% |      493137      2.50%     77.48% |      494412      2.51%     79.99% |      493458      2.50%     82.49% |      494238      2.50%     84.99% |      493992      2.50%     87.50% |      493326      2.50%     90.00% |      493273      2.50%     92.49% |      493556      2.50%     95.00% |      493167      2.50%     97.50% |      494230      2.50%    100.00% (Unspecified)
system.ruby.L1Cache_Controller.I.Response::total     19732831                       (Unspecified)
system.ruby.RequestType.LD.latency_hist_seqr::bucket_size            1                       (Unspecified)
system.ruby.RequestType.LD.latency_hist_seqr::max_bucket            9                       (Unspecified)
system.ruby.RequestType.LD.latency_hist_seqr::samples     19736507                       (Unspecified)
system.ruby.RequestType.LD.latency_hist_seqr::mean            1                       (Unspecified)
system.ruby.RequestType.LD.latency_hist_seqr::gmean            1                       (Unspecified)
system.ruby.RequestType.LD.latency_hist_seqr |           0      0.00%      0.00% |    19736507    100.00%    100.00% |           0      0.00%    100.00% |           0      0.00%    100.00% |           0      0.00%    100.00% |           0      0.00%    100.00% |           0      0.00%    100.00% |           0      0.00%    100.00% |           0      0.00%    100.00% |           0      0.00%    100.00% (Unspecified)
system.ruby.RequestType.LD.latency_hist_seqr::total     19736507                       (Unspecified)
system.ruby.RequestType.LD.hit_latency_hist_seqr::bucket_size            1                       (Unspecified)
system.ruby.RequestType.LD.hit_latency_hist_seqr::max_bucket            9                       (Unspecified)
system.ruby.RequestType.LD.hit_latency_hist_seqr::samples     19736507                       (Unspecified)
system.ruby.RequestType.LD.hit_latency_hist_seqr::mean            1                       (Unspecified)
system.ruby.RequestType.LD.hit_latency_hist_seqr::gmean            1                       (Unspecified)
system.ruby.RequestType.LD.hit_latency_hist_seqr |           0      0.00%      0.00% |    19736507    100.00%    100.00% |           0      0.00%    100.00% |           0      0.00%    100.00% |           0      0.00%    100.00% |           0      0.00%    100.00% |           0      0.00%    100.00% |           0      0.00%    100.00% |           0      0.00%    100.00% |           0      0.00%    100.00% (Unspecified)
system.ruby.RequestType.LD.hit_latency_hist_seqr::total     19736507                       (Unspecified)
system.ruby.RequestType.ST.latency_hist_seqr::bucket_size            1                       (Unspecified)
system.ruby.RequestType.ST.latency_hist_seqr::max_bucket            9                       (Unspecified)
system.ruby.RequestType.ST.latency_hist_seqr::samples     19732831                       (Unspecified)
system.ruby.RequestType.ST.latency_hist_seqr::mean            1                       (Unspecified)
system.ruby.RequestType.ST.latency_hist_seqr::gmean            1                       (Unspecified)
system.ruby.RequestType.ST.latency_hist_seqr |           0      0.00%      0.00% |    19732831    100.00%    100.00% |           0      0.00%    100.00% |           0      0.00%    100.00% |           0      0.00%    100.00% |           0      0.00%    100.00% |           0      0.00%    100.00% |           0      0.00%    100.00% |           0      0.00%    100.00% |           0      0.00%    100.00% (Unspecified)
system.ruby.RequestType.ST.latency_hist_seqr::total     19732831                       (Unspecified)
system.ruby.RequestType.ST.hit_latency_hist_seqr::bucket_size            1                       (Unspecified)
system.ruby.RequestType.ST.hit_latency_hist_seqr::max_bucket            9                       (Unspecified)
system.ruby.RequestType.ST.hit_latency_hist_seqr::samples     19732831                       (Unspecified)
system.ruby.RequestType.ST.hit_latency_hist_seqr::mean            1                       (Unspecified)
system.ruby.RequestType.ST.hit_latency_hist_seqr::gmean            1                       (Unspecified)
system.ruby.RequestType.ST.hit_latency_hist_seqr |           0      0.00%      0.00% |    19732831    100.00%    100.00% |           0      0.00%    100.00% |           0      0.00%    100.00% |           0      0.00%    100.00% |           0      0.00%    100.00% |           0      0.00%    100.00% |           0      0.00%    100.00% |           0      0.00%    100.00% |           0      0.00%    100.00% (Unspecified)
system.ruby.RequestType.ST.hit_latency_hist_seqr::total     19732831                       (Unspecified)
system.ruby.clk_domain.clock                      250                       # Clock period in ticks (Tick)
system.ruby.dir_cntrl0.power_state.pwrStateResidencyTicks::UNDEFINED   2147483750                       # Cumulative time (in ticks) in various power states (Tick)
system.ruby.dir_cntrl0.requestToDir.m_msg_count       307621                       # Number of messages passed the buffer (Count)
system.ruby.dir_cntrl0.requestToDir.m_buf_msgs     0.035812                       # Average number of messages in buffer ((Count/Tick))
system.ruby.dir_cntrl0.responseToDir.m_msg_count       234915                       # Number of messages passed the buffer (Count)
system.ruby.dir_cntrl0.responseToDir.m_buf_msgs     0.027348                       # Average number of messages in buffer ((Count/Tick))
system.ruby.dir_cntrl1.power_state.pwrStateResidencyTicks::UNDEFINED   2147483750                       # Cumulative time (in ticks) in various power states (Tick)
system.ruby.dir_cntrl1.requestToDir.m_msg_count       308515                       # Number of messages passed the buffer (Count)
system.ruby.dir_cntrl1.requestToDir.m_buf_msgs     0.035916                       # Average number of messages in buffer ((Count/Tick))
system.ruby.dir_cntrl1.responseToDir.m_msg_count       234367                       # Number of messages passed the buffer (Count)
system.ruby.dir_cntrl1.responseToDir.m_buf_msgs     0.027284                       # Average number of messages in buffer ((Count/Tick))
system.ruby.dir_cntrl10.power_state.pwrStateResidencyTicks::UNDEFINED   2147483750                       # Cumulative time (in ticks) in various power states (Tick)
system.ruby.dir_cntrl10.requestToDir.m_msg_count       308519                       # Number of messages passed the buffer (Count)
system.ruby.dir_cntrl10.requestToDir.m_buf_msgs     0.035916                       # Average number of messages in buffer ((Count/Tick))
system.ruby.dir_cntrl10.responseToDir.m_msg_count       234722                       # Number of messages passed the buffer (Count)
system.ruby.dir_cntrl10.responseToDir.m_buf_msgs     0.027325                       # Average number of messages in buffer ((Count/Tick))
system.ruby.dir_cntrl11.power_state.pwrStateResidencyTicks::UNDEFINED   2147483750                       # Cumulative time (in ticks) in various power states (Tick)
system.ruby.dir_cntrl11.requestToDir.m_msg_count       309782                       # Number of messages passed the buffer (Count)
system.ruby.dir_cntrl11.requestToDir.m_buf_msgs     0.036063                       # Average number of messages in buffer ((Count/Tick))
system.ruby.dir_cntrl11.responseToDir.m_msg_count       234634                       # Number of messages passed the buffer (Count)
system.ruby.dir_cntrl11.responseToDir.m_buf_msgs     0.027315                       # Average number of messages in buffer ((Count/Tick))
system.ruby.dir_cntrl12.power_state.pwrStateResidencyTicks::UNDEFINED   2147483750                       # Cumulative time (in ticks) in various power states (Tick)
system.ruby.dir_cntrl12.requestToDir.m_msg_count       308763                       # Number of messages passed the buffer (Count)
system.ruby.dir_cntrl12.requestToDir.m_buf_msgs     0.035945                       # Average number of messages in buffer ((Count/Tick))
system.ruby.dir_cntrl12.responseToDir.m_msg_count       233972                       # Number of messages passed the buffer (Count)
system.ruby.dir_cntrl12.responseToDir.m_buf_msgs     0.027238                       # Average number of messages in buffer ((Count/Tick))
system.ruby.dir_cntrl13.power_state.pwrStateResidencyTicks::UNDEFINED   2147483750                       # Cumulative time (in ticks) in various power states (Tick)
system.ruby.dir_cntrl13.requestToDir.m_msg_count       308516                       # Number of messages passed the buffer (Count)
system.ruby.dir_cntrl13.requestToDir.m_buf_msgs     0.035916                       # Average number of messages in buffer ((Count/Tick))
system.ruby.dir_cntrl13.responseToDir.m_msg_count       235543                       # Number of messages passed the buffer (Count)
system.ruby.dir_cntrl13.responseToDir.m_buf_msgs     0.027421                       # Average number of messages in buffer ((Count/Tick))
system.ruby.dir_cntrl14.power_state.pwrStateResidencyTicks::UNDEFINED   2147483750                       # Cumulative time (in ticks) in various power states (Tick)
system.ruby.dir_cntrl14.requestToDir.m_msg_count       308051                       # Number of messages passed the buffer (Count)
system.ruby.dir_cntrl14.requestToDir.m_buf_msgs     0.035862                       # Average number of messages in buffer ((Count/Tick))
system.ruby.dir_cntrl14.responseToDir.m_msg_count       234803                       # Number of messages passed the buffer (Count)
system.ruby.dir_cntrl14.responseToDir.m_buf_msgs     0.027335                       # Average number of messages in buffer ((Count/Tick))
system.ruby.dir_cntrl15.power_state.pwrStateResidencyTicks::UNDEFINED   2147483750                       # Cumulative time (in ticks) in various power states (Tick)
system.ruby.dir_cntrl15.requestToDir.m_msg_count       308442                       # Number of messages passed the buffer (Count)
system.ruby.dir_cntrl15.requestToDir.m_buf_msgs     0.035907                       # Average number of messages in buffer ((Count/Tick))
system.ruby.dir_cntrl15.responseToDir.m_msg_count       234779                       # Number of messages passed the buffer (Count)
system.ruby.dir_cntrl15.responseToDir.m_buf_msgs     0.027332                       # Average number of messages in buffer ((Count/Tick))
system.ruby.dir_cntrl16.power_state.pwrStateResidencyTicks::UNDEFINED   2147483750                       # Cumulative time (in ticks) in various power states (Tick)
system.ruby.dir_cntrl16.requestToDir.m_msg_count       307916                       # Number of messages passed the buffer (Count)
system.ruby.dir_cntrl16.requestToDir.m_buf_msgs     0.035846                       # Average number of messages in buffer ((Count/Tick))
system.ruby.dir_cntrl16.responseToDir.m_msg_count       234710                       # Number of messages passed the buffer (Count)
system.ruby.dir_cntrl16.responseToDir.m_buf_msgs     0.027324                       # Average number of messages in buffer ((Count/Tick))
system.ruby.dir_cntrl17.power_state.pwrStateResidencyTicks::UNDEFINED   2147483750                       # Cumulative time (in ticks) in various power states (Tick)
system.ruby.dir_cntrl17.requestToDir.m_msg_count       308416                       # Number of messages passed the buffer (Count)
system.ruby.dir_cntrl17.requestToDir.m_buf_msgs     0.035904                       # Average number of messages in buffer ((Count/Tick))
system.ruby.dir_cntrl17.responseToDir.m_msg_count       234679                       # Number of messages passed the buffer (Count)
system.ruby.dir_cntrl17.responseToDir.m_buf_msgs     0.027320                       # Average number of messages in buffer ((Count/Tick))
system.ruby.dir_cntrl18.power_state.pwrStateResidencyTicks::UNDEFINED   2147483750                       # Cumulative time (in ticks) in various power states (Tick)
system.ruby.dir_cntrl18.requestToDir.m_msg_count       308273                       # Number of messages passed the buffer (Count)
system.ruby.dir_cntrl18.requestToDir.m_buf_msgs     0.035888                       # Average number of messages in buffer ((Count/Tick))
system.ruby.dir_cntrl18.responseToDir.m_msg_count       235058                       # Number of messages passed the buffer (Count)
system.ruby.dir_cntrl18.responseToDir.m_buf_msgs     0.027364                       # Average number of messages in buffer ((Count/Tick))
system.ruby.dir_cntrl19.power_state.pwrStateResidencyTicks::UNDEFINED   2147483750                       # Cumulative time (in ticks) in various power states (Tick)
system.ruby.dir_cntrl19.requestToDir.m_msg_count       308357                       # Number of messages passed the buffer (Count)
system.ruby.dir_cntrl19.requestToDir.m_buf_msgs     0.035897                       # Average number of messages in buffer ((Count/Tick))
system.ruby.dir_cntrl19.responseToDir.m_msg_count       234507                       # Number of messages passed the buffer (Count)
system.ruby.dir_cntrl19.responseToDir.m_buf_msgs     0.027300                       # Average number of messages in buffer ((Count/Tick))
system.ruby.dir_cntrl2.power_state.pwrStateResidencyTicks::UNDEFINED   2147483750                       # Cumulative time (in ticks) in various power states (Tick)
system.ruby.dir_cntrl2.requestToDir.m_msg_count       308490                       # Number of messages passed the buffer (Count)
system.ruby.dir_cntrl2.requestToDir.m_buf_msgs     0.035913                       # Average number of messages in buffer ((Count/Tick))
system.ruby.dir_cntrl2.responseToDir.m_msg_count       234094                       # Number of messages passed the buffer (Count)
system.ruby.dir_cntrl2.responseToDir.m_buf_msgs     0.027252                       # Average number of messages in buffer ((Count/Tick))
system.ruby.dir_cntrl20.power_state.pwrStateResidencyTicks::UNDEFINED   2147483750                       # Cumulative time (in ticks) in various power states (Tick)
system.ruby.dir_cntrl20.requestToDir.m_msg_count       308680                       # Number of messages passed the buffer (Count)
system.ruby.dir_cntrl20.requestToDir.m_buf_msgs     0.035935                       # Average number of messages in buffer ((Count/Tick))
system.ruby.dir_cntrl20.responseToDir.m_msg_count       234834                       # Number of messages passed the buffer (Count)
system.ruby.dir_cntrl20.responseToDir.m_buf_msgs     0.027338                       # Average number of messages in buffer ((Count/Tick))
system.ruby.dir_cntrl21.power_state.pwrStateResidencyTicks::UNDEFINED   2147483750                       # Cumulative time (in ticks) in various power states (Tick)
system.ruby.dir_cntrl21.requestToDir.m_msg_count       307851                       # Number of messages passed the buffer (Count)
system.ruby.dir_cntrl21.requestToDir.m_buf_msgs     0.035839                       # Average number of messages in buffer ((Count/Tick))
system.ruby.dir_cntrl21.responseToDir.m_msg_count       234523                       # Number of messages passed the buffer (Count)
system.ruby.dir_cntrl21.responseToDir.m_buf_msgs     0.027302                       # Average number of messages in buffer ((Count/Tick))
system.ruby.dir_cntrl22.power_state.pwrStateResidencyTicks::UNDEFINED   2147483750                       # Cumulative time (in ticks) in various power states (Tick)
system.ruby.dir_cntrl22.requestToDir.m_msg_count       308055                       # Number of messages passed the buffer (Count)
system.ruby.dir_cntrl22.requestToDir.m_buf_msgs     0.035862                       # Average number of messages in buffer ((Count/Tick))
system.ruby.dir_cntrl22.responseToDir.m_msg_count       234207                       # Number of messages passed the buffer (Count)
system.ruby.dir_cntrl22.responseToDir.m_buf_msgs     0.027265                       # Average number of messages in buffer ((Count/Tick))
system.ruby.dir_cntrl23.power_state.pwrStateResidencyTicks::UNDEFINED   2147483750                       # Cumulative time (in ticks) in various power states (Tick)
system.ruby.dir_cntrl23.requestToDir.m_msg_count       308623                       # Number of messages passed the buffer (Count)
system.ruby.dir_cntrl23.requestToDir.m_buf_msgs     0.035928                       # Average number of messages in buffer ((Count/Tick))
system.ruby.dir_cntrl23.responseToDir.m_msg_count       235184                       # Number of messages passed the buffer (Count)
system.ruby.dir_cntrl23.responseToDir.m_buf_msgs     0.027379                       # Average number of messages in buffer ((Count/Tick))
system.ruby.dir_cntrl24.power_state.pwrStateResidencyTicks::UNDEFINED   2147483750                       # Cumulative time (in ticks) in various power states (Tick)
system.ruby.dir_cntrl24.requestToDir.m_msg_count       308029                       # Number of messages passed the buffer (Count)
system.ruby.dir_cntrl24.requestToDir.m_buf_msgs     0.035859                       # Average number of messages in buffer ((Count/Tick))
system.ruby.dir_cntrl24.responseToDir.m_msg_count       234246                       # Number of messages passed the buffer (Count)
system.ruby.dir_cntrl24.responseToDir.m_buf_msgs     0.027270                       # Average number of messages in buffer ((Count/Tick))
system.ruby.dir_cntrl25.power_state.pwrStateResidencyTicks::UNDEFINED   2147483750                       # Cumulative time (in ticks) in various power states (Tick)
system.ruby.dir_cntrl25.requestToDir.m_msg_count       308136                       # Number of messages passed the buffer (Count)
system.ruby.dir_cntrl25.requestToDir.m_buf_msgs     0.035872                       # Average number of messages in buffer ((Count/Tick))
system.ruby.dir_cntrl25.responseToDir.m_msg_count       234853                       # Number of messages passed the buffer (Count)
system.ruby.dir_cntrl25.responseToDir.m_buf_msgs     0.027340                       # Average number of messages in buffer ((Count/Tick))
system.ruby.dir_cntrl26.power_state.pwrStateResidencyTicks::UNDEFINED   2147483750                       # Cumulative time (in ticks) in various power states (Tick)
system.ruby.dir_cntrl26.requestToDir.m_msg_count       308483                       # Number of messages passed the buffer (Count)
system.ruby.dir_cntrl26.requestToDir.m_buf_msgs     0.035912                       # Average number of messages in buffer ((Count/Tick))
system.ruby.dir_cntrl26.responseToDir.m_msg_count       235097                       # Number of messages passed the buffer (Count)
system.ruby.dir_cntrl26.responseToDir.m_buf_msgs     0.027369                       # Average number of messages in buffer ((Count/Tick))
system.ruby.dir_cntrl27.power_state.pwrStateResidencyTicks::UNDEFINED   2147483750                       # Cumulative time (in ticks) in various power states (Tick)
system.ruby.dir_cntrl27.requestToDir.m_msg_count       307980                       # Number of messages passed the buffer (Count)
system.ruby.dir_cntrl27.requestToDir.m_buf_msgs     0.035854                       # Average number of messages in buffer ((Count/Tick))
system.ruby.dir_cntrl27.responseToDir.m_msg_count       234358                       # Number of messages passed the buffer (Count)
system.ruby.dir_cntrl27.responseToDir.m_buf_msgs     0.027283                       # Average number of messages in buffer ((Count/Tick))
system.ruby.dir_cntrl28.power_state.pwrStateResidencyTicks::UNDEFINED   2147483750                       # Cumulative time (in ticks) in various power states (Tick)
system.ruby.dir_cntrl28.requestToDir.m_msg_count       308111                       # Number of messages passed the buffer (Count)
system.ruby.dir_cntrl28.requestToDir.m_buf_msgs     0.035869                       # Average number of messages in buffer ((Count/Tick))
system.ruby.dir_cntrl28.responseToDir.m_msg_count       234077                       # Number of messages passed the buffer (Count)
system.ruby.dir_cntrl28.responseToDir.m_buf_msgs     0.027250                       # Average number of messages in buffer ((Count/Tick))
system.ruby.dir_cntrl29.power_state.pwrStateResidencyTicks::UNDEFINED   2147483750                       # Cumulative time (in ticks) in various power states (Tick)
system.ruby.dir_cntrl29.requestToDir.m_msg_count       307924                       # Number of messages passed the buffer (Count)
system.ruby.dir_cntrl29.requestToDir.m_buf_msgs     0.035847                       # Average number of messages in buffer ((Count/Tick))
system.ruby.dir_cntrl29.responseToDir.m_msg_count       234422                       # Number of messages passed the buffer (Count)
system.ruby.dir_cntrl29.responseToDir.m_buf_msgs     0.027290                       # Average number of messages in buffer ((Count/Tick))
system.ruby.dir_cntrl3.power_state.pwrStateResidencyTicks::UNDEFINED   2147483750                       # Cumulative time (in ticks) in various power states (Tick)
system.ruby.dir_cntrl3.requestToDir.m_msg_count       308933                       # Number of messages passed the buffer (Count)
system.ruby.dir_cntrl3.requestToDir.m_buf_msgs     0.035965                       # Average number of messages in buffer ((Count/Tick))
system.ruby.dir_cntrl3.responseToDir.m_msg_count       235073                       # Number of messages passed the buffer (Count)
system.ruby.dir_cntrl3.responseToDir.m_buf_msgs     0.027366                       # Average number of messages in buffer ((Count/Tick))
system.ruby.dir_cntrl30.power_state.pwrStateResidencyTicks::UNDEFINED   2147483750                       # Cumulative time (in ticks) in various power states (Tick)
system.ruby.dir_cntrl30.requestToDir.m_msg_count       309027                       # Number of messages passed the buffer (Count)
system.ruby.dir_cntrl30.requestToDir.m_buf_msgs     0.035975                       # Average number of messages in buffer ((Count/Tick))
system.ruby.dir_cntrl30.responseToDir.m_msg_count       234492                       # Number of messages passed the buffer (Count)
system.ruby.dir_cntrl30.responseToDir.m_buf_msgs     0.027298                       # Average number of messages in buffer ((Count/Tick))
system.ruby.dir_cntrl31.power_state.pwrStateResidencyTicks::UNDEFINED   2147483750                       # Cumulative time (in ticks) in various power states (Tick)
system.ruby.dir_cntrl31.requestToDir.m_msg_count       307698                       # Number of messages passed the buffer (Count)
system.ruby.dir_cntrl31.requestToDir.m_buf_msgs     0.035821                       # Average number of messages in buffer ((Count/Tick))
system.ruby.dir_cntrl31.responseToDir.m_msg_count       234392                       # Number of messages passed the buffer (Count)
system.ruby.dir_cntrl31.responseToDir.m_buf_msgs     0.027287                       # Average number of messages in buffer ((Count/Tick))
system.ruby.dir_cntrl32.power_state.pwrStateResidencyTicks::UNDEFINED   2147483750                       # Cumulative time (in ticks) in various power states (Tick)
system.ruby.dir_cntrl32.requestToDir.m_msg_count       307571                       # Number of messages passed the buffer (Count)
system.ruby.dir_cntrl32.requestToDir.m_buf_msgs     0.035806                       # Average number of messages in buffer ((Count/Tick))
system.ruby.dir_cntrl32.responseToDir.m_msg_count       235382                       # Number of messages passed the buffer (Count)
system.ruby.dir_cntrl32.responseToDir.m_buf_msgs     0.027402                       # Average number of messages in buffer ((Count/Tick))
system.ruby.dir_cntrl33.power_state.pwrStateResidencyTicks::UNDEFINED   2147483750                       # Cumulative time (in ticks) in various power states (Tick)
system.ruby.dir_cntrl33.requestToDir.m_msg_count       308059                       # Number of messages passed the buffer (Count)
system.ruby.dir_cntrl33.requestToDir.m_buf_msgs     0.035863                       # Average number of messages in buffer ((Count/Tick))
system.ruby.dir_cntrl33.responseToDir.m_msg_count       234586                       # Number of messages passed the buffer (Count)
system.ruby.dir_cntrl33.responseToDir.m_buf_msgs     0.027309                       # Average number of messages in buffer ((Count/Tick))
system.ruby.dir_cntrl34.power_state.pwrStateResidencyTicks::UNDEFINED   2147483750                       # Cumulative time (in ticks) in various power states (Tick)
system.ruby.dir_cntrl34.requestToDir.m_msg_count       308697                       # Number of messages passed the buffer (Count)
system.ruby.dir_cntrl34.requestToDir.m_buf_msgs     0.035937                       # Average number of messages in buffer ((Count/Tick))
system.ruby.dir_cntrl34.responseToDir.m_msg_count       235233                       # Number of messages passed the buffer (Count)
system.ruby.dir_cntrl34.responseToDir.m_buf_msgs     0.027385                       # Average number of messages in buffer ((Count/Tick))
system.ruby.dir_cntrl35.power_state.pwrStateResidencyTicks::UNDEFINED   2147483750                       # Cumulative time (in ticks) in various power states (Tick)
system.ruby.dir_cntrl35.requestToDir.m_msg_count       308488                       # Number of messages passed the buffer (Count)
system.ruby.dir_cntrl35.requestToDir.m_buf_msgs     0.035913                       # Average number of messages in buffer ((Count/Tick))
system.ruby.dir_cntrl35.responseToDir.m_msg_count       234292                       # Number of messages passed the buffer (Count)
system.ruby.dir_cntrl35.responseToDir.m_buf_msgs     0.027275                       # Average number of messages in buffer ((Count/Tick))
system.ruby.dir_cntrl36.power_state.pwrStateResidencyTicks::UNDEFINED   2147483750                       # Cumulative time (in ticks) in various power states (Tick)
system.ruby.dir_cntrl36.requestToDir.m_msg_count       309319                       # Number of messages passed the buffer (Count)
system.ruby.dir_cntrl36.requestToDir.m_buf_msgs     0.036009                       # Average number of messages in buffer ((Count/Tick))
system.ruby.dir_cntrl36.responseToDir.m_msg_count       233932                       # Number of messages passed the buffer (Count)
system.ruby.dir_cntrl36.responseToDir.m_buf_msgs     0.027233                       # Average number of messages in buffer ((Count/Tick))
system.ruby.dir_cntrl37.power_state.pwrStateResidencyTicks::UNDEFINED   2147483750                       # Cumulative time (in ticks) in various power states (Tick)
system.ruby.dir_cntrl37.requestToDir.m_msg_count       309643                       # Number of messages passed the buffer (Count)
system.ruby.dir_cntrl37.requestToDir.m_buf_msgs     0.036047                       # Average number of messages in buffer ((Count/Tick))
system.ruby.dir_cntrl37.responseToDir.m_msg_count       234572                       # Number of messages passed the buffer (Count)
system.ruby.dir_cntrl37.responseToDir.m_buf_msgs     0.027308                       # Average number of messages in buffer ((Count/Tick))
system.ruby.dir_cntrl38.power_state.pwrStateResidencyTicks::UNDEFINED   2147483750                       # Cumulative time (in ticks) in various power states (Tick)
system.ruby.dir_cntrl38.requestToDir.m_msg_count       308874                       # Number of messages passed the buffer (Count)
system.ruby.dir_cntrl38.requestToDir.m_buf_msgs     0.035958                       # Average number of messages in buffer ((Count/Tick))
system.ruby.dir_cntrl38.responseToDir.m_msg_count       234780                       # Number of messages passed the buffer (Count)
system.ruby.dir_cntrl38.responseToDir.m_buf_msgs     0.027332                       # Average number of messages in buffer ((Count/Tick))
system.ruby.dir_cntrl39.power_state.pwrStateResidencyTicks::UNDEFINED   2147483750                       # Cumulative time (in ticks) in various power states (Tick)
system.ruby.dir_cntrl39.requestToDir.m_msg_count       308464                       # Number of messages passed the buffer (Count)
system.ruby.dir_cntrl39.requestToDir.m_buf_msgs     0.035910                       # Average number of messages in buffer ((Count/Tick))
system.ruby.dir_cntrl39.responseToDir.m_msg_count       234849                       # Number of messages passed the buffer (Count)
system.ruby.dir_cntrl39.responseToDir.m_buf_msgs     0.027340                       # Average number of messages in buffer ((Count/Tick))
system.ruby.dir_cntrl4.power_state.pwrStateResidencyTicks::UNDEFINED   2147483750                       # Cumulative time (in ticks) in various power states (Tick)
system.ruby.dir_cntrl4.requestToDir.m_msg_count       308485                       # Number of messages passed the buffer (Count)
system.ruby.dir_cntrl4.requestToDir.m_buf_msgs     0.035912                       # Average number of messages in buffer ((Count/Tick))
system.ruby.dir_cntrl4.responseToDir.m_msg_count       235081                       # Number of messages passed the buffer (Count)
system.ruby.dir_cntrl4.responseToDir.m_buf_msgs     0.027367                       # Average number of messages in buffer ((Count/Tick))
system.ruby.dir_cntrl40.power_state.pwrStateResidencyTicks::UNDEFINED   2147483750                       # Cumulative time (in ticks) in various power states (Tick)
system.ruby.dir_cntrl40.requestToDir.m_msg_count       308911                       # Number of messages passed the buffer (Count)
system.ruby.dir_cntrl40.requestToDir.m_buf_msgs     0.035962                       # Average number of messages in buffer ((Count/Tick))
system.ruby.dir_cntrl40.responseToDir.m_msg_count       235656                       # Number of messages passed the buffer (Count)
system.ruby.dir_cntrl40.responseToDir.m_buf_msgs     0.027434                       # Average number of messages in buffer ((Count/Tick))
system.ruby.dir_cntrl41.power_state.pwrStateResidencyTicks::UNDEFINED   2147483750                       # Cumulative time (in ticks) in various power states (Tick)
system.ruby.dir_cntrl41.requestToDir.m_msg_count       307508                       # Number of messages passed the buffer (Count)
system.ruby.dir_cntrl41.requestToDir.m_buf_msgs     0.035799                       # Average number of messages in buffer ((Count/Tick))
system.ruby.dir_cntrl41.responseToDir.m_msg_count       233768                       # Number of messages passed the buffer (Count)
system.ruby.dir_cntrl41.responseToDir.m_buf_msgs     0.027214                       # Average number of messages in buffer ((Count/Tick))
system.ruby.dir_cntrl42.power_state.pwrStateResidencyTicks::UNDEFINED   2147483750                       # Cumulative time (in ticks) in various power states (Tick)
system.ruby.dir_cntrl42.requestToDir.m_msg_count       308598                       # Number of messages passed the buffer (Count)
system.ruby.dir_cntrl42.requestToDir.m_buf_msgs     0.035926                       # Average number of messages in buffer ((Count/Tick))
system.ruby.dir_cntrl42.responseToDir.m_msg_count       234984                       # Number of messages passed the buffer (Count)
system.ruby.dir_cntrl42.responseToDir.m_buf_msgs     0.027356                       # Average number of messages in buffer ((Count/Tick))
system.ruby.dir_cntrl43.power_state.pwrStateResidencyTicks::UNDEFINED   2147483750                       # Cumulative time (in ticks) in various power states (Tick)
system.ruby.dir_cntrl43.requestToDir.m_msg_count       308222                       # Number of messages passed the buffer (Count)
system.ruby.dir_cntrl43.requestToDir.m_buf_msgs     0.035882                       # Average number of messages in buffer ((Count/Tick))
system.ruby.dir_cntrl43.responseToDir.m_msg_count       233760                       # Number of messages passed the buffer (Count)
system.ruby.dir_cntrl43.responseToDir.m_buf_msgs     0.027213                       # Average number of messages in buffer ((Count/Tick))
system.ruby.dir_cntrl44.power_state.pwrStateResidencyTicks::UNDEFINED   2147483750                       # Cumulative time (in ticks) in various power states (Tick)
system.ruby.dir_cntrl44.requestToDir.m_msg_count       308819                       # Number of messages passed the buffer (Count)
system.ruby.dir_cntrl44.requestToDir.m_buf_msgs     0.035951                       # Average number of messages in buffer ((Count/Tick))
system.ruby.dir_cntrl44.responseToDir.m_msg_count       235650                       # Number of messages passed the buffer (Count)
system.ruby.dir_cntrl44.responseToDir.m_buf_msgs     0.027433                       # Average number of messages in buffer ((Count/Tick))
system.ruby.dir_cntrl45.power_state.pwrStateResidencyTicks::UNDEFINED   2147483750                       # Cumulative time (in ticks) in various power states (Tick)
system.ruby.dir_cntrl45.requestToDir.m_msg_count       308926                       # Number of messages passed the buffer (Count)
system.ruby.dir_cntrl45.requestToDir.m_buf_msgs     0.035964                       # Average number of messages in buffer ((Count/Tick))
system.ruby.dir_cntrl45.responseToDir.m_msg_count       235189                       # Number of messages passed the buffer (Count)
system.ruby.dir_cntrl45.responseToDir.m_buf_msgs     0.027380                       # Average number of messages in buffer ((Count/Tick))
system.ruby.dir_cntrl46.power_state.pwrStateResidencyTicks::UNDEFINED   2147483750                       # Cumulative time (in ticks) in various power states (Tick)
system.ruby.dir_cntrl46.requestToDir.m_msg_count       308383                       # Number of messages passed the buffer (Count)
system.ruby.dir_cntrl46.requestToDir.m_buf_msgs     0.035901                       # Average number of messages in buffer ((Count/Tick))
system.ruby.dir_cntrl46.responseToDir.m_msg_count       235351                       # Number of messages passed the buffer (Count)
system.ruby.dir_cntrl46.responseToDir.m_buf_msgs     0.027398                       # Average number of messages in buffer ((Count/Tick))
system.ruby.dir_cntrl47.power_state.pwrStateResidencyTicks::UNDEFINED   2147483750                       # Cumulative time (in ticks) in various power states (Tick)
system.ruby.dir_cntrl47.requestToDir.m_msg_count       308210                       # Number of messages passed the buffer (Count)
system.ruby.dir_cntrl47.requestToDir.m_buf_msgs     0.035880                       # Average number of messages in buffer ((Count/Tick))
system.ruby.dir_cntrl47.responseToDir.m_msg_count       234329                       # Number of messages passed the buffer (Count)
system.ruby.dir_cntrl47.responseToDir.m_buf_msgs     0.027279                       # Average number of messages in buffer ((Count/Tick))
system.ruby.dir_cntrl48.power_state.pwrStateResidencyTicks::UNDEFINED   2147483750                       # Cumulative time (in ticks) in various power states (Tick)
system.ruby.dir_cntrl48.requestToDir.m_msg_count       307015                       # Number of messages passed the buffer (Count)
system.ruby.dir_cntrl48.requestToDir.m_buf_msgs     0.035741                       # Average number of messages in buffer ((Count/Tick))
system.ruby.dir_cntrl48.responseToDir.m_msg_count       234702                       # Number of messages passed the buffer (Count)
system.ruby.dir_cntrl48.responseToDir.m_buf_msgs     0.027323                       # Average number of messages in buffer ((Count/Tick))
system.ruby.dir_cntrl49.power_state.pwrStateResidencyTicks::UNDEFINED   2147483750                       # Cumulative time (in ticks) in various power states (Tick)
system.ruby.dir_cntrl49.requestToDir.m_msg_count       309275                       # Number of messages passed the buffer (Count)
system.ruby.dir_cntrl49.requestToDir.m_buf_msgs     0.036004                       # Average number of messages in buffer ((Count/Tick))
system.ruby.dir_cntrl49.responseToDir.m_msg_count       234136                       # Number of messages passed the buffer (Count)
system.ruby.dir_cntrl49.responseToDir.m_buf_msgs     0.027257                       # Average number of messages in buffer ((Count/Tick))
system.ruby.dir_cntrl5.power_state.pwrStateResidencyTicks::UNDEFINED   2147483750                       # Cumulative time (in ticks) in various power states (Tick)
system.ruby.dir_cntrl5.requestToDir.m_msg_count       307721                       # Number of messages passed the buffer (Count)
system.ruby.dir_cntrl5.requestToDir.m_buf_msgs     0.035823                       # Average number of messages in buffer ((Count/Tick))
system.ruby.dir_cntrl5.responseToDir.m_msg_count       234162                       # Number of messages passed the buffer (Count)
system.ruby.dir_cntrl5.responseToDir.m_buf_msgs     0.027260                       # Average number of messages in buffer ((Count/Tick))
system.ruby.dir_cntrl50.power_state.pwrStateResidencyTicks::UNDEFINED   2147483750                       # Cumulative time (in ticks) in various power states (Tick)
system.ruby.dir_cntrl50.requestToDir.m_msg_count       307672                       # Number of messages passed the buffer (Count)
system.ruby.dir_cntrl50.requestToDir.m_buf_msgs     0.035818                       # Average number of messages in buffer ((Count/Tick))
system.ruby.dir_cntrl50.responseToDir.m_msg_count       234006                       # Number of messages passed the buffer (Count)
system.ruby.dir_cntrl50.responseToDir.m_buf_msgs     0.027242                       # Average number of messages in buffer ((Count/Tick))
system.ruby.dir_cntrl51.power_state.pwrStateResidencyTicks::UNDEFINED   2147483750                       # Cumulative time (in ticks) in various power states (Tick)
system.ruby.dir_cntrl51.requestToDir.m_msg_count       308705                       # Number of messages passed the buffer (Count)
system.ruby.dir_cntrl51.requestToDir.m_buf_msgs     0.035938                       # Average number of messages in buffer ((Count/Tick))
system.ruby.dir_cntrl51.responseToDir.m_msg_count       234724                       # Number of messages passed the buffer (Count)
system.ruby.dir_cntrl51.responseToDir.m_buf_msgs     0.027325                       # Average number of messages in buffer ((Count/Tick))
system.ruby.dir_cntrl52.power_state.pwrStateResidencyTicks::UNDEFINED   2147483750                       # Cumulative time (in ticks) in various power states (Tick)
system.ruby.dir_cntrl52.requestToDir.m_msg_count       308179                       # Number of messages passed the buffer (Count)
system.ruby.dir_cntrl52.requestToDir.m_buf_msgs     0.035877                       # Average number of messages in buffer ((Count/Tick))
system.ruby.dir_cntrl52.responseToDir.m_msg_count       234581                       # Number of messages passed the buffer (Count)
system.ruby.dir_cntrl52.responseToDir.m_buf_msgs     0.027309                       # Average number of messages in buffer ((Count/Tick))
system.ruby.dir_cntrl53.power_state.pwrStateResidencyTicks::UNDEFINED   2147483750                       # Cumulative time (in ticks) in various power states (Tick)
system.ruby.dir_cntrl53.requestToDir.m_msg_count       308668                       # Number of messages passed the buffer (Count)
system.ruby.dir_cntrl53.requestToDir.m_buf_msgs     0.035934                       # Average number of messages in buffer ((Count/Tick))
system.ruby.dir_cntrl53.responseToDir.m_msg_count       234943                       # Number of messages passed the buffer (Count)
system.ruby.dir_cntrl53.responseToDir.m_buf_msgs     0.027351                       # Average number of messages in buffer ((Count/Tick))
system.ruby.dir_cntrl54.power_state.pwrStateResidencyTicks::UNDEFINED   2147483750                       # Cumulative time (in ticks) in various power states (Tick)
system.ruby.dir_cntrl54.requestToDir.m_msg_count       307219                       # Number of messages passed the buffer (Count)
system.ruby.dir_cntrl54.requestToDir.m_buf_msgs     0.035765                       # Average number of messages in buffer ((Count/Tick))
system.ruby.dir_cntrl54.responseToDir.m_msg_count       234504                       # Number of messages passed the buffer (Count)
system.ruby.dir_cntrl54.responseToDir.m_buf_msgs     0.027300                       # Average number of messages in buffer ((Count/Tick))
system.ruby.dir_cntrl55.power_state.pwrStateResidencyTicks::UNDEFINED   2147483750                       # Cumulative time (in ticks) in various power states (Tick)
system.ruby.dir_cntrl55.requestToDir.m_msg_count       308545                       # Number of messages passed the buffer (Count)
system.ruby.dir_cntrl55.requestToDir.m_buf_msgs     0.035919                       # Average number of messages in buffer ((Count/Tick))
system.ruby.dir_cntrl55.responseToDir.m_msg_count       235445                       # Number of messages passed the buffer (Count)
system.ruby.dir_cntrl55.responseToDir.m_buf_msgs     0.027409                       # Average number of messages in buffer ((Count/Tick))
system.ruby.dir_cntrl56.power_state.pwrStateResidencyTicks::UNDEFINED   2147483750                       # Cumulative time (in ticks) in various power states (Tick)
system.ruby.dir_cntrl56.requestToDir.m_msg_count       307936                       # Number of messages passed the buffer (Count)
system.ruby.dir_cntrl56.requestToDir.m_buf_msgs     0.035848                       # Average number of messages in buffer ((Count/Tick))
system.ruby.dir_cntrl56.responseToDir.m_msg_count       234630                       # Number of messages passed the buffer (Count)
system.ruby.dir_cntrl56.responseToDir.m_buf_msgs     0.027315                       # Average number of messages in buffer ((Count/Tick))
system.ruby.dir_cntrl57.power_state.pwrStateResidencyTicks::UNDEFINED   2147483750                       # Cumulative time (in ticks) in various power states (Tick)
system.ruby.dir_cntrl57.requestToDir.m_msg_count       307805                       # Number of messages passed the buffer (Count)
system.ruby.dir_cntrl57.requestToDir.m_buf_msgs     0.035833                       # Average number of messages in buffer ((Count/Tick))
system.ruby.dir_cntrl57.responseToDir.m_msg_count       235600                       # Number of messages passed the buffer (Count)
system.ruby.dir_cntrl57.responseToDir.m_buf_msgs     0.027427                       # Average number of messages in buffer ((Count/Tick))
system.ruby.dir_cntrl58.power_state.pwrStateResidencyTicks::UNDEFINED   2147483750                       # Cumulative time (in ticks) in various power states (Tick)
system.ruby.dir_cntrl58.requestToDir.m_msg_count       308492                       # Number of messages passed the buffer (Count)
system.ruby.dir_cntrl58.requestToDir.m_buf_msgs     0.035913                       # Average number of messages in buffer ((Count/Tick))
system.ruby.dir_cntrl58.responseToDir.m_msg_count       235080                       # Number of messages passed the buffer (Count)
system.ruby.dir_cntrl58.responseToDir.m_buf_msgs     0.027367                       # Average number of messages in buffer ((Count/Tick))
system.ruby.dir_cntrl59.power_state.pwrStateResidencyTicks::UNDEFINED   2147483750                       # Cumulative time (in ticks) in various power states (Tick)
system.ruby.dir_cntrl59.requestToDir.m_msg_count       308335                       # Number of messages passed the buffer (Count)
system.ruby.dir_cntrl59.requestToDir.m_buf_msgs     0.035895                       # Average number of messages in buffer ((Count/Tick))
[...]
system.ruby.network.sankey.vcvn13.vcvn5             0                       (Unspecified)
system.ruby.network.sankey.vcvn13.vcvn6             0                       (Unspecified)
system.ruby.network.sankey.vcvn13.vcvn7             0                       (Unspecified)
system.ruby.network.sankey.vcvn13.vcvn8             0                       (Unspecified)
system.ruby.network.sankey.vcvn13.vcvn9             0                       (Unspecified)
system.ruby.network.sankey.vcvn14.vcvn0             0                       (Unspecified)
system.ruby.network.sankey.vcvn14.vcvn1             0                       (Unspecified)
system.ruby.network.sankey.vcvn14.vcvn10            0                       (Unspecified)
system.ruby.network.sankey.vcvn14.vcvn11            0                       (Unspecified)
system.ruby.network.sankey.vcvn14.vcvn12            0                       (Unspecified)
system.ruby.network.sankey.vcvn14.vcvn13            0                       (Unspecified)
system.ruby.network.sankey.vcvn14.vcvn14      7986002                       (Unspecified)
system.ruby.network.sankey.vcvn14.vcvn15            0                       (Unspecified)
system.ruby.network.sankey.vcvn14.vcvn16            0                       (Unspecified)
system.ruby.network.sankey.vcvn14.vcvn17            0                       (Unspecified)
system.ruby.network.sankey.vcvn14.vcvn2             0                       (Unspecified)
system.ruby.network.sankey.vcvn14.vcvn3             0                       (Unspecified)
system.ruby.network.sankey.vcvn14.vcvn4             0                       (Unspecified)
system.ruby.network.sankey.vcvn14.vcvn5             0                       (Unspecified)
system.ruby.network.sankey.vcvn14.vcvn6             0                       (Unspecified)
system.ruby.network.sankey.vcvn14.vcvn7             0                       (Unspecified)
system.ruby.network.sankey.vcvn14.vcvn8             0                       (Unspecified)
system.ruby.network.sankey.vcvn14.vcvn9             0                       (Unspecified)
system.ruby.network.sankey.vcvn15.vcvn0             0                       (Unspecified)
system.ruby.network.sankey.vcvn15.vcvn1             0                       (Unspecified)
system.ruby.network.sankey.vcvn15.vcvn10            0                       (Unspecified)
system.ruby.network.sankey.vcvn15.vcvn11            0                       (Unspecified)
system.ruby.network.sankey.vcvn15.vcvn12            0                       (Unspecified)
system.ruby.network.sankey.vcvn15.vcvn13            0                       (Unspecified)
system.ruby.network.sankey.vcvn15.vcvn14            0                       (Unspecified)
system.ruby.network.sankey.vcvn15.vcvn15      5041248                       (Unspecified)
system.ruby.network.sankey.vcvn15.vcvn16            0                       (Unspecified)
system.ruby.network.sankey.vcvn15.vcvn17            0                       (Unspecified)
system.ruby.network.sankey.vcvn15.vcvn2             0                       (Unspecified)
system.ruby.network.sankey.vcvn15.vcvn3             0                       (Unspecified)
system.ruby.network.sankey.vcvn15.vcvn4             0                       (Unspecified)
system.ruby.network.sankey.vcvn15.vcvn5             0                       (Unspecified)
system.ruby.network.sankey.vcvn15.vcvn6             0                       (Unspecified)
system.ruby.network.sankey.vcvn15.vcvn7             0                       (Unspecified)
system.ruby.network.sankey.vcvn15.vcvn8             0                       (Unspecified)
system.ruby.network.sankey.vcvn15.vcvn9             0                       (Unspecified)
system.ruby.network.sankey.vcvn16.vcvn0             0                       (Unspecified)
system.ruby.network.sankey.vcvn16.vcvn1             0                       (Unspecified)
system.ruby.network.sankey.vcvn16.vcvn10            0                       (Unspecified)
system.ruby.network.sankey.vcvn16.vcvn11            0                       (Unspecified)
system.ruby.network.sankey.vcvn16.vcvn12            0                       (Unspecified)
system.ruby.network.sankey.vcvn16.vcvn13            0                       (Unspecified)
system.ruby.network.sankey.vcvn16.vcvn14            0                       (Unspecified)
system.ruby.network.sankey.vcvn16.vcvn15            0                       (Unspecified)
system.ruby.network.sankey.vcvn16.vcvn16      5814250                       (Unspecified)
system.ruby.network.sankey.vcvn16.vcvn17            0                       (Unspecified)
system.ruby.network.sankey.vcvn16.vcvn2             0                       (Unspecified)
system.ruby.network.sankey.vcvn16.vcvn3             0                       (Unspecified)
system.ruby.network.sankey.vcvn16.vcvn4             0                       (Unspecified)
system.ruby.network.sankey.vcvn16.vcvn5             0                       (Unspecified)
system.ruby.network.sankey.vcvn16.vcvn6             0                       (Unspecified)
system.ruby.network.sankey.vcvn16.vcvn7             0                       (Unspecified)
system.ruby.network.sankey.vcvn16.vcvn8             0                       (Unspecified)
system.ruby.network.sankey.vcvn16.vcvn9             0                       (Unspecified)
system.ruby.network.sankey.vcvn17.vcvn0             0                       (Unspecified)
system.ruby.network.sankey.vcvn17.vcvn1             0                       (Unspecified)
system.ruby.network.sankey.vcvn17.vcvn10            0                       (Unspecified)
system.ruby.network.sankey.vcvn17.vcvn11            0                       (Unspecified)
system.ruby.network.sankey.vcvn17.vcvn12            0                       (Unspecified)
system.ruby.network.sankey.vcvn17.vcvn13            0                       (Unspecified)
system.ruby.network.sankey.vcvn17.vcvn14            0                       (Unspecified)
system.ruby.network.sankey.vcvn17.vcvn15            0                       (Unspecified)
system.ruby.network.sankey.vcvn17.vcvn16            0                       (Unspecified)
system.ruby.network.sankey.vcvn17.vcvn17      5562372                       (Unspecified)
system.ruby.network.sankey.vcvn17.vcvn2             0                       (Unspecified)
system.ruby.network.sankey.vcvn17.vcvn3             0                       (Unspecified)
system.ruby.network.sankey.vcvn17.vcvn4             0                       (Unspecified)
system.ruby.network.sankey.vcvn17.vcvn5             0                       (Unspecified)
system.ruby.network.sankey.vcvn17.vcvn6             0                       (Unspecified)
system.ruby.network.sankey.vcvn17.vcvn7             0                       (Unspecified)
system.ruby.network.sankey.vcvn17.vcvn8             0                       (Unspecified)
system.ruby.network.sankey.vcvn17.vcvn9             0                       (Unspecified)
system.ruby.network.sankey.vcvn2.vcvn0              0                       (Unspecified)
system.ruby.network.sankey.vcvn2.vcvn1              0                       (Unspecified)
system.ruby.network.sankey.vcvn2.vcvn10             0                       (Unspecified)
system.ruby.network.sankey.vcvn2.vcvn11             0                       (Unspecified)
system.ruby.network.sankey.vcvn2.vcvn12             0                       (Unspecified)
system.ruby.network.sankey.vcvn2.vcvn13             0                       (Unspecified)
system.ruby.network.sankey.vcvn2.vcvn14             0                       (Unspecified)
system.ruby.network.sankey.vcvn2.vcvn15             0                       (Unspecified)
system.ruby.network.sankey.vcvn2.vcvn16             0                       (Unspecified)
system.ruby.network.sankey.vcvn2.vcvn17             0                       (Unspecified)
system.ruby.network.sankey.vcvn2.vcvn2        3753505                       (Unspecified)
system.ruby.network.sankey.vcvn2.vcvn3              0                       (Unspecified)
system.ruby.network.sankey.vcvn2.vcvn4              0                       (Unspecified)
system.ruby.network.sankey.vcvn2.vcvn5              0                       (Unspecified)
system.ruby.network.sankey.vcvn2.vcvn6              0                       (Unspecified)
system.ruby.network.sankey.vcvn2.vcvn7              0                       (Unspecified)
system.ruby.network.sankey.vcvn2.vcvn8              0                       (Unspecified)
system.ruby.network.sankey.vcvn2.vcvn9              0                       (Unspecified)
system.ruby.network.sankey.vcvn3.vcvn0              0                       (Unspecified)
system.ruby.network.sankey.vcvn3.vcvn1              0                       (Unspecified)
system.ruby.network.sankey.vcvn3.vcvn10             0                       (Unspecified)
system.ruby.network.sankey.vcvn3.vcvn11             0                       (Unspecified)
system.ruby.network.sankey.vcvn3.vcvn12             0                       (Unspecified)
system.ruby.network.sankey.vcvn3.vcvn13             0                       (Unspecified)
system.ruby.network.sankey.vcvn3.vcvn14             0                       (Unspecified)
system.ruby.network.sankey.vcvn3.vcvn15             0                       (Unspecified)
system.ruby.network.sankey.vcvn3.vcvn16             0                       (Unspecified)
system.ruby.network.sankey.vcvn3.vcvn17             0                       (Unspecified)
system.ruby.network.sankey.vcvn3.vcvn2              0                       (Unspecified)
system.ruby.network.sankey.vcvn3.vcvn3        2394323                       (Unspecified)
system.ruby.network.sankey.vcvn3.vcvn4              0                       (Unspecified)
system.ruby.network.sankey.vcvn3.vcvn5              0                       (Unspecified)
system.ruby.network.sankey.vcvn3.vcvn6              0                       (Unspecified)
system.ruby.network.sankey.vcvn3.vcvn7              0                       (Unspecified)
system.ruby.network.sankey.vcvn3.vcvn8              0                       (Unspecified)
system.ruby.network.sankey.vcvn3.vcvn9              0                       (Unspecified)
system.ruby.network.sankey.vcvn4.vcvn0              0                       (Unspecified)
system.ruby.network.sankey.vcvn4.vcvn1              0                       (Unspecified)
system.ruby.network.sankey.vcvn4.vcvn10             0                       (Unspecified)
system.ruby.network.sankey.vcvn4.vcvn11             0                       (Unspecified)
system.ruby.network.sankey.vcvn4.vcvn12             0                       (Unspecified)
system.ruby.network.sankey.vcvn4.vcvn13             0                       (Unspecified)
system.ruby.network.sankey.vcvn4.vcvn14             0                       (Unspecified)
system.ruby.network.sankey.vcvn4.vcvn15             0                       (Unspecified)
system.ruby.network.sankey.vcvn4.vcvn16             0                       (Unspecified)
system.ruby.network.sankey.vcvn4.vcvn17             0                       (Unspecified)
system.ruby.network.sankey.vcvn4.vcvn2              0                       (Unspecified)
system.ruby.network.sankey.vcvn4.vcvn3              0                       (Unspecified)
system.ruby.network.sankey.vcvn4.vcvn4        2946990                       (Unspecified)
system.ruby.network.sankey.vcvn4.vcvn5              0                       (Unspecified)
system.ruby.network.sankey.vcvn4.vcvn6              0                       (Unspecified)
system.ruby.network.sankey.vcvn4.vcvn7              0                       (Unspecified)
system.ruby.network.sankey.vcvn4.vcvn8              0                       (Unspecified)
system.ruby.network.sankey.vcvn4.vcvn9              0                       (Unspecified)
system.ruby.network.sankey.vcvn5.vcvn0              0                       (Unspecified)
system.ruby.network.sankey.vcvn5.vcvn1              0                       (Unspecified)
system.ruby.network.sankey.vcvn5.vcvn10             0                       (Unspecified)
system.ruby.network.sankey.vcvn5.vcvn11             0                       (Unspecified)
system.ruby.network.sankey.vcvn5.vcvn12             0                       (Unspecified)
system.ruby.network.sankey.vcvn5.vcvn13             0                       (Unspecified)
system.ruby.network.sankey.vcvn5.vcvn14             0                       (Unspecified)
system.ruby.network.sankey.vcvn5.vcvn15             0                       (Unspecified)
system.ruby.network.sankey.vcvn5.vcvn16             0                       (Unspecified)
system.ruby.network.sankey.vcvn5.vcvn17             0                       (Unspecified)
system.ruby.network.sankey.vcvn5.vcvn2              0                       (Unspecified)
system.ruby.network.sankey.vcvn5.vcvn3              0                       (Unspecified)
system.ruby.network.sankey.vcvn5.vcvn4              0                       (Unspecified)
system.ruby.network.sankey.vcvn5.vcvn5        2094746                       (Unspecified)
system.ruby.network.sankey.vcvn5.vcvn6              0                       (Unspecified)
system.ruby.network.sankey.vcvn5.vcvn7              0                       (Unspecified)
system.ruby.network.sankey.vcvn5.vcvn8              0                       (Unspecified)
system.ruby.network.sankey.vcvn5.vcvn9              0                       (Unspecified)
system.ruby.network.sankey.vcvn6.vcvn0              0                       (Unspecified)
system.ruby.network.sankey.vcvn6.vcvn1              0                       (Unspecified)
system.ruby.network.sankey.vcvn6.vcvn10             0                       (Unspecified)
system.ruby.network.sankey.vcvn6.vcvn11             0                       (Unspecified)
system.ruby.network.sankey.vcvn6.vcvn12             0                       (Unspecified)
system.ruby.network.sankey.vcvn6.vcvn13             0                       (Unspecified)
system.ruby.network.sankey.vcvn6.vcvn14             0                       (Unspecified)
system.ruby.network.sankey.vcvn6.vcvn15             0                       (Unspecified)
system.ruby.network.sankey.vcvn6.vcvn16             0                       (Unspecified)
system.ruby.network.sankey.vcvn6.vcvn17             0                       (Unspecified)
system.ruby.network.sankey.vcvn6.vcvn2              0                       (Unspecified)
system.ruby.network.sankey.vcvn6.vcvn3              0                       (Unspecified)
system.ruby.network.sankey.vcvn6.vcvn4              0                       (Unspecified)
system.ruby.network.sankey.vcvn6.vcvn5              0                       (Unspecified)
system.ruby.network.sankey.vcvn6.vcvn6              0                       (Unspecified)
system.ruby.network.sankey.vcvn6.vcvn7              0                       (Unspecified)
system.ruby.network.sankey.vcvn6.vcvn8              0                       (Unspecified)
system.ruby.network.sankey.vcvn6.vcvn9              0                       (Unspecified)
system.ruby.network.sankey.vcvn7.vcvn0              0                       (Unspecified)
system.ruby.network.sankey.vcvn7.vcvn1              0                       (Unspecified)
system.ruby.network.sankey.vcvn7.vcvn10             0                       (Unspecified)
system.ruby.network.sankey.vcvn7.vcvn11             0                       (Unspecified)
system.ruby.network.sankey.vcvn7.vcvn12             0                       (Unspecified)
system.ruby.network.sankey.vcvn7.vcvn13             0                       (Unspecified)
system.ruby.network.sankey.vcvn7.vcvn14             0                       (Unspecified)
system.ruby.network.sankey.vcvn7.vcvn15             0                       (Unspecified)
system.ruby.network.sankey.vcvn7.vcvn16             0                       (Unspecified)
system.ruby.network.sankey.vcvn7.vcvn17             0                       (Unspecified)
system.ruby.network.sankey.vcvn7.vcvn2              0                       (Unspecified)
system.ruby.network.sankey.vcvn7.vcvn3              0                       (Unspecified)
system.ruby.network.sankey.vcvn7.vcvn4              0                       (Unspecified)
system.ruby.network.sankey.vcvn7.vcvn5              0                       (Unspecified)
system.ruby.network.sankey.vcvn7.vcvn6              0                       (Unspecified)
system.ruby.network.sankey.vcvn7.vcvn7              0                       (Unspecified)
system.ruby.network.sankey.vcvn7.vcvn8              0                       (Unspecified)
system.ruby.network.sankey.vcvn7.vcvn9              0                       (Unspecified)
system.ruby.network.sankey.vcvn8.vcvn0              0                       (Unspecified)
system.ruby.network.sankey.vcvn8.vcvn1              0                       (Unspecified)
system.ruby.network.sankey.vcvn8.vcvn10             0                       (Unspecified)
system.ruby.network.sankey.vcvn8.vcvn11             0                       (Unspecified)
system.ruby.network.sankey.vcvn8.vcvn12             0                       (Unspecified)
system.ruby.network.sankey.vcvn8.vcvn13             0                       (Unspecified)
system.ruby.network.sankey.vcvn8.vcvn14             0                       (Unspecified)
system.ruby.network.sankey.vcvn8.vcvn15             0                       (Unspecified)
system.ruby.network.sankey.vcvn8.vcvn16             0                       (Unspecified)
system.ruby.network.sankey.vcvn8.vcvn17             0                       (Unspecified)
system.ruby.network.sankey.vcvn8.vcvn2              0                       (Unspecified)
system.ruby.network.sankey.vcvn8.vcvn3              0                       (Unspecified)
system.ruby.network.sankey.vcvn8.vcvn4              0                       (Unspecified)
system.ruby.network.sankey.vcvn8.vcvn5              0                       (Unspecified)
system.ruby.network.sankey.vcvn8.vcvn6              0                       (Unspecified)
system.ruby.network.sankey.vcvn8.vcvn7              0                       (Unspecified)
system.ruby.network.sankey.vcvn8.vcvn8              0                       (Unspecified)
system.ruby.network.sankey.vcvn8.vcvn9              0                       (Unspecified)
system.ruby.network.sankey.vcvn9.vcvn0              0                       (Unspecified)
system.ruby.network.sankey.vcvn9.vcvn1              0                       (Unspecified)
system.ruby.network.sankey.vcvn9.vcvn10             0                       (Unspecified)
system.ruby.network.sankey.vcvn9.vcvn11             0                       (Unspecified)
system.ruby.network.sankey.vcvn9.vcvn12             0                       (Unspecified)
system.ruby.network.sankey.vcvn9.vcvn13             0                       (Unspecified)
system.ruby.network.sankey.vcvn9.vcvn14             0                       (Unspecified)
system.ruby.network.sankey.vcvn9.vcvn15             0                       (Unspecified)
system.ruby.network.sankey.vcvn9.vcvn16             0                       (Unspecified)
system.ruby.network.sankey.vcvn9.vcvn17             0                       (Unspecified)
system.ruby.network.sankey.vcvn9.vcvn2              0                       (Unspecified)
system.ruby.network.sankey.vcvn9.vcvn3              0                       (Unspecified)
system.ruby.network.sankey.vcvn9.vcvn4              0                       (Unspecified)
system.ruby.network.sankey.vcvn9.vcvn5              0                       (Unspecified)
system.ruby.network.sankey.vcvn9.vcvn6              0                       (Unspecified)
system.ruby.network.sankey.vcvn9.vcvn7              0                       (Unspecified)
system.ruby.network.sankey.vcvn9.vcvn8              0                       (Unspecified)
system.ruby.network.sankey.vcvn9.vcvn9              0                       (Unspecified)

---------- End Simulation Statistics   ----------
