
---------- Begin Simulation Statistics ----------
simSeconds                                   0.002147                       # Number of seconds simulated (Second)
simTicks                                   2147483750                       # Number of ticks simulated (Tick)
finalTick                                  2147483750                       # Number of ticks from beginning of simulation (restored from checkpoints and never reset) (Tick)
simFreq                                  1000000000000                       # The number of ticks per simulated second ((Tick/Second))
hostSeconds                                   5681.93                       # Real time elapsed on the host (Second)
hostTickRate                                   377949                       # The number of ticks simulated per host second (ticks/s) ((Tick/Second))
hostMemory                                   10778400                       # Number of bytes of host memory used (Byte)
system.clk_domain.clock                           250                       # Clock period in ticks (Tick)
system.cpu0.power_state.pwrStateResidencyTicks::UNDEFINED   2147483750                       # Cumulative time (in ticks) in various power states (Tick)
system.cpu1.power_state.pwrStateResidencyTicks::UNDEFINED   2147483750                       # Cumulative time (in ticks) in various power states (Tick)
system.cpu10.power_state.pwrStateResidencyTicks::UNDEFINED   2147483750                       # Cumulative time (in ticks) in various power states (Tick)
system.cpu11.power_state.pwrStateResidencyTicks::UNDEFINED   2147483750                       # Cumulative time (in ticks) in various power states (Tick)
system.cpu12.power_state.pwrStateResidencyTicks::UNDEFINED   2147483750                       # Cumulative time (in ticks) in various power states (Tick)
system.cpu13.power_state.pwrStateResidencyTicks::UNDEFINED   2147483750                       # Cumulative time (in ticks) in various power states (Tick)
system.cpu14.power_state.pwrStateResidencyTicks::UNDEFINED   2147483750                       # Cumulative time (in ticks) in various power states (Tick)
system.cpu15.power_state.pwrStateResidencyTicks::UNDEFINED   2147483750                       # Cumulative time (in ticks) in various power states (Tick)
system.cpu16.power_state.pwrStateResidencyTicks::UNDEFINED   2147483750                       # Cumulative time (in ticks) in various power states (Tick)
system.cpu17.power_state.pwrStateResidencyTicks::UNDEFINED   2147483750                       # Cumulative time (in ticks) in various power states (Tick)
system.cpu18.power_state.pwrStateResidencyTicks::UNDEFINED   2147483750                       # Cumulative time (in ticks) in various power states (Tick)
system.cpu19.power_state.pwrStateResidencyTicks::UNDEFINED   2147483750                       # Cumulative time (in ticks) in various power states (Tick)
system.cpu2.power_state.pwrStateResidencyTicks::UNDEFINED   2147483750                       # Cumulative time (in ticks) in various power states (Tick)
system.cpu20.power_state.pwrStateResidencyTicks::UNDEFINED   2147483750                       # Cumulative time (in ticks) in various power states (Tick)
system.cpu21.power_state.pwrStateResidencyTicks::UNDEFINED   2147483750                       # Cumulative time (in ticks) in various power states (Tick)
system.cpu22.power_state.pwrStateResidencyTicks::UNDEFINED   2147483750                       # Cumulative time (in ticks) in various power states (Tick)
system.cpu23.power_state.pwrStateResidencyTicks::UNDEFINED   2147483750                       # Cumulative time (in ticks) in various power states (Tick)
system.cpu24.power_state.pwrStateResidencyTicks::UNDEFINED   2147483750                       # Cumulative time (in ticks) in various power states (Tick)
system.cpu25.power_state.pwrStateResidencyTicks::UNDEFINED   2147483750                       # Cumulative time (in ticks) in various power states (Tick)
system.cpu26.power_state.pwrStateResidencyTicks::UNDEFINED   2147483750                       # Cumulative time (in ticks) in various power states (Tick)
system.cpu27.power_state.pwrStateResidencyTicks::UNDEFINED   2147483750                       # Cumulative time (in ticks) in various power states (Tick)
system.cpu28.power_state.pwrStateResidencyTicks::UNDEFINED   2147483750                       # Cumulative time (in ticks) in various power states (Tick)
system.cpu29.power_state.pwrStateResidencyTicks::UNDEFINED   2147483750                       # Cumulative time (in ticks) in various power states (Tick)
system.cpu3.power_state.pwrStateResidencyTicks::UNDEFINED   2147483750                       # Cumulative time (in ticks) in various power states (Tick)
system.cpu30.power_state.pwrStateResidencyTicks::UNDEFINED   2147483750                       # Cumulative time (in ticks) in various power states (Tick)
system.cpu31.power_state.pwrStateResidencyTicks::UNDEFINED   2147483750                       # Cumulative time (in ticks) in various power states (Tick)
system.cpu32.power_state.pwrStateResidencyTicks::UNDEFINED   2147483750                       # Cumulative time (in ticks) in various power states (Tick)
system.cpu33.power_state.pwrStateResidencyTicks::UNDEFINED   2147483750                       # Cumulative time (in ticks) in various power states (Tick)
system.cpu34.power_state.pwrStateResidencyTicks::UNDEFINED   2147483750                       # Cumulative time (in ticks) in various power states (Tick)
system.cpu35.power_state.pwrStateResidencyTicks::UNDEFINED   2147483750                       # Cumulative time (in ticks) in various power states (Tick)
system.cpu36.power_state.pwrStateResidencyTicks::UNDEFINED   2147483750                       # Cumulative time (in ticks) in various power states (Tick)
system.cpu37.power_state.pwrStateResidencyTicks::UNDEFINED   2147483750                       # Cumulative time (in ticks) in various power states (Tick)
system.cpu38.power_state.pwrStateResidencyTicks::UNDEFINED   2147483750                       # Cumulative time (in ticks) in various power states (Tick)
system.cpu39.power_state.pwrStateResidencyTicks::UNDEFINED   2147483750                       # Cumulative time (in ticks) in various power states (Tick)
system.cpu4.power_state.pwrStateResidencyTicks::UNDEFINED   2147483750                       # Cumulative time (in ticks) in various power states (Tick)
system.cpu5.power_state.pwrStateResidencyTicks::UNDEFINED   2147483750                       # Cumulative time (in ticks) in various power states (Tick)
system.cpu6.power_state.pwrStateResidencyTicks::UNDEFINED   2147483750                       # Cumulative time (in ticks) in various power states (Tick)
system.cpu7.power_state.pwrStateResidencyTicks::UNDEFINED   2147483750                       # Cumulative time (in ticks) in various power states (Tick)
system.cpu8.power_state.pwrStateResidencyTicks::UNDEFINED   2147483750                       # Cumulative time (in ticks) in various power states (Tick)
system.cpu9.power_state.pwrStateResidencyTicks::UNDEFINED   2147483750                       # Cumulative time (in ticks) in various power states (Tick)
system.mem_ctrls0.power_state.pwrStateResidencyTicks::UNDEFINED   2147483750                       # Cumulative time (in ticks) in various power states (Tick)
system.mem_ctrls1.power_state.pwrStateResidencyTicks::UNDEFINED   2147483750                       # Cumulative time (in ticks) in various power states (Tick)
system.mem_ctrls10.power_state.pwrStateResidencyTicks::UNDEFINED   2147483750                       # Cumulative time (in ticks) in various power states (Tick)
system.mem_ctrls100.power_state.pwrStateResidencyTicks::UNDEFINED   2147483750                       # Cumulative time (in ticks) in various power states (Tick)
system.mem_ctrls101.power_state.pwrStateResidencyTicks::UNDEFINED   2147483750                       # Cumulative time (in ticks) in various power states (Tick)
system.mem_ctrls102.power_state.pwrStateResidencyTicks::UNDEFINED   2147483750                       # Cumulative time (in ticks) in various power states (Tick)
system.mem_ctrls103.power_state.pwrStateResidencyTicks::UNDEFINED   2147483750                       # Cumulative time (in ticks) in various power states (Tick)
system.mem_ctrls104.power_state.pwrStateResidencyTicks::UNDEFINED   2147483750                       # Cumulative time (in ticks) in various power states (Tick)
system.mem_ctrls105.power_state.pwrStateResidencyTicks::UNDEFINED   2147483750                       # Cumulative time (in ticks) in various power states (Tick)
system.mem_ctrls106.power_state.pwrStateResidencyTicks::UNDEFINED   2147483750                       # Cumulative time (in ticks) in various power states (Tick)
system.mem_ctrls107.power_state.pwrStateResidencyTicks::UNDEFINED   2147483750                       # Cumulative time (in ticks) in various power states (Tick)
system.mem_ctrls108.power_state.pwrStateResidencyTicks::UNDEFINED   2147483750                       # Cumulative time (in ticks) in various power states (Tick)
system.mem_ctrls109.power_state.pwrStateResidencyTicks::UNDEFINED   2147483750                       # Cumulative time (in ticks) in various power states (Tick)
system.mem_ctrls11.power_state.pwrStateResidencyTicks::UNDEFINED   2147483750                       # Cumulative time (in ticks) in various power states (Tick)
system.mem_ctrls110.power_state.pwrStateResidencyTicks::UNDEFINED   2147483750                       # Cumulative time (in ticks) in various power states (Tick)
system.mem_ctrls111.power_state.pwrStateResidencyTicks::UNDEFINED   2147483750                       # Cumulative time (in ticks) in various power states (Tick)
system.mem_ctrls112.power_state.pwrStateResidencyTicks::UNDEFINED   2147483750                       # Cumulative time (in ticks) in various power states (Tick)
system.mem_ctrls113.power_state.pwrStateResidencyTicks::UNDEFINED   2147483750                       # Cumulative time (in ticks) in various power states (Tick)
system.mem_ctrls114.power_state.pwrStateResidencyTicks::UNDEFINED   2147483750                       # Cumulative time (in ticks) in various power states (Tick)
system.mem_ctrls115.power_state.pwrStateResidencyTicks::UNDEFINED   2147483750                       # Cumulative time (in ticks) in various power states (Tick)
system.mem_ctrls116.power_state.pwrStateResidencyTicks::UNDEFINED   2147483750                       # Cumulative time (in ticks) in various power states (Tick)
system.mem_ctrls117.power_state.pwrStateResidencyTicks::UNDEFINED   2147483750                       # Cumulative time (in ticks) in various power states (Tick)
system.mem_ctrls118.power_state.pwrStateResidencyTicks::UNDEFINED   2147483750                       # Cumulative time (in ticks) in various power states (Tick)
system.mem_ctrls119.power_state.pwrStateResidencyTicks::UNDEFINED   2147483750                       # Cumulative time (in ticks) in various power states (Tick)
system.mem_ctrls12.power_state.pwrStateResidencyTicks::UNDEFINED   2147483750                       # Cumulative time (in ticks) in various power states (Tick)
system.mem_ctrls120.power_state.pwrStateResidencyTicks::UNDEFINED   2147483750                       # Cumulative time (in ticks) in various power states (Tick)
system.mem_ctrls121.power_state.pwrStateResidencyTicks::UNDEFINED   2147483750                       # Cumulative time (in ticks) in various power states (Tick)
system.mem_ctrls122.power_state.pwrStateResidencyTicks::UNDEFINED   2147483750                       # Cumulative time (in ticks) in various power states (Tick)
system.mem_ctrls123.power_state.pwrStateResidencyTicks::UNDEFINED   2147483750                       # Cumulative time (in ticks) in various power states (Tick)
system.mem_ctrls124.power_state.pwrStateResidencyTicks::UNDEFINED   2147483750                       # Cumulative time (in ticks) in various power states (Tick)
system.mem_ctrls125.power_state.pwrStateResidencyTicks::UNDEFINED   2147483750                       # Cumulative time (in ticks) in various power states (Tick)
system.mem_ctrls126.power_state.pwrStateResidencyTicks::UNDEFINED   2147483750                       # Cumulative time (in ticks) in various power states (Tick)
system.mem_ctrls127.power_state.pwrStateResidencyTicks::UNDEFINED   2147483750                       # Cumulative time (in ticks) in various power states (Tick)
system.mem_ctrls128.power_state.pwrStateResidencyTicks::UNDEFINED   2147483750                       # Cumulative time (in ticks) in various power states (Tick)
system.mem_ctrls129.power_state.pwrStateResidencyTicks::UNDEFINED   2147483750                       # Cumulative time (in ticks) in various power states (Tick)
system.mem_ctrls13.power_state.pwrStateResidencyTicks::UNDEFINED   2147483750                       # Cumulative time (in ticks) in various power states (Tick)
system.mem_ctrls130.power_state.pwrStateResidencyTicks::UNDEFINED   2147483750                       # Cumulative time (in ticks) in various power states (Tick)
system.mem_ctrls131.power_state.pwrStateResidencyTicks::UNDEFINED   2147483750                       # Cumulative time (in ticks) in various power states (Tick)
system.mem_ctrls132.power_state.pwrStateResidencyTicks::UNDEFINED   2147483750                       # Cumulative time (in ticks) in various power states (Tick)
system.mem_ctrls133.power_state.pwrStateResidencyTicks::UNDEFINED   2147483750                       # Cumulative time (in ticks) in various power states (Tick)
system.mem_ctrls134.power_state.pwrStateResidencyTicks::UNDEFINED   2147483750                       # Cumulative time (in ticks) in various power states (Tick)
system.mem_ctrls135.power_state.pwrStateResidencyTicks::UNDEFINED   2147483750                       # Cumulative time (in ticks) in various power states (Tick)
system.mem_ctrls136.power_state.pwrStateResidencyTicks::UNDEFINED   2147483750                       # Cumulative time (in ticks) in various power states (Tick)
system.mem_ctrls137.power_state.pwrStateResidencyTicks::UNDEFINED   2147483750                       # Cumulative time (in ticks) in various power states (Tick)
system.mem_ctrls138.power_state.pwrStateResidencyTicks::UNDEFINED   2147483750                       # Cumulative time (in ticks) in various power states (Tick)
system.mem_ctrls139.power_state.pwrStateResidencyTicks::UNDEFINED   2147483750                       # Cumulative time (in ticks) in various power states (Tick)
system.mem_ctrls14.power_state.pwrStateResidencyTicks::UNDEFINED   2147483750                       # Cumulative time (in ticks) in various power states (Tick)
system.mem_ctrls140.power_state.pwrStateResidencyTicks::UNDEFINED   2147483750                       # Cumulative time (in ticks) in various power states (Tick)
system.mem_ctrls141.power_state.pwrStateResidencyTicks::UNDEFINED   2147483750                       # Cumulative time (in ticks) in various power states (Tick)
system.mem_ctrls142.power_state.pwrStateResidencyTicks::UNDEFINED   2147483750                       # Cumulative time (in ticks) in various power states (Tick)
system.mem_ctrls143.power_state.pwrStateResidencyTicks::UNDEFINED   2147483750                       # Cumulative time (in ticks) in various power states (Tick)
system.mem_ctrls144.power_state.pwrStateResidencyTicks::UNDEFINED   2147483750                       # Cumulative time (in ticks) in various power states (Tick)
system.mem_ctrls145.power_state.pwrStateResidencyTicks::UNDEFINED   2147483750                       # Cumulative time (in ticks) in various power states (Tick)
system.mem_ctrls146.power_state.pwrStateResidencyTicks::UNDEFINED   2147483750                       # Cumulative time (in ticks) in various power states (Tick)
system.mem_ctrls147.power_state.pwrStateResidencyTicks::UNDEFINED   2147483750                       # Cumulative time (in ticks) in various power states (Tick)
system.mem_ctrls148.power_state.pwrStateResidencyTicks::UNDEFINED   2147483750                       # Cumulative time (in ticks) in various power states (Tick)
system.mem_ctrls149.power_state.pwrStateResidencyTicks::UNDEFINED   2147483750                       # Cumulative time (in ticks) in various power states (Tick)
system.mem_ctrls15.power_state.pwrStateResidencyTicks::UNDEFINED   2147483750                       # Cumulative time (in ticks) in various power states (Tick)
system.mem_ctrls150.power_state.pwrStateResidencyTicks::UNDEFINED   2147483750                       # Cumulative time (in ticks) in various power states (Tick)
system.mem_ctrls151.power_state.pwrStateResidencyTicks::UNDEFINED   2147483750                       # Cumulative time (in ticks) in various power states (Tick)
system.mem_ctrls152.power_state.pwrStateResidencyTicks::UNDEFINED   2147483750                       # Cumulative time (in ticks) in various power states (Tick)
system.mem_ctrls153.power_state.pwrStateResidencyTicks::UNDEFINED   2147483750                       # Cumulative time (in ticks) in various power states (Tick)
system.mem_ctrls154.power_state.pwrStateResidencyTicks::UNDEFINED   2147483750                       # Cumulative time (in ticks) in various power states (Tick)
system.mem_ctrls155.power_state.pwrStateResidencyTicks::UNDEFINED   2147483750                       # Cumulative time (in ticks) in various power states (Tick)
system.mem_ctrls156.power_state.pwrStateResidencyTicks::UNDEFINED   2147483750                       # Cumulative time (in ticks) in various power states (Tick)
system.mem_ctrls157.power_state.pwrStateResidencyTicks::UNDEFINED   2147483750                       # Cumulative time (in ticks) in various power states (Tick)
system.mem_ctrls158.power_state.pwrStateResidencyTicks::UNDEFINED   2147483750                       # Cumulative time (in ticks) in various power states (Tick)
system.mem_ctrls159.power_state.pwrStateResidencyTicks::UNDEFINED   2147483750                       # Cumulative time (in ticks) in various power states (Tick)
system.mem_ctrls16.power_state.pwrStateResidencyTicks::UNDEFINED   2147483750                       # Cumulative time (in ticks) in various power states (Tick)
system.mem_ctrls17.power_state.pwrStateResidencyTicks::UNDEFINED   2147483750                       # Cumulative time (in ticks) in various power states (Tick)
system.mem_ctrls18.power_state.pwrStateResidencyTicks::UNDEFINED   2147483750                       # Cumulative time (in ticks) in various power states (Tick)
system.mem_ctrls19.power_state.pwrStateResidencyTicks::UNDEFINED   2147483750                       # Cumulative time (in ticks) in various power states (Tick)
system.mem_ctrls2.power_state.pwrStateResidencyTicks::UNDEFINED   2147483750                       # Cumulative time (in ticks) in various power states (Tick)
system.mem_ctrls20.power_state.pwrStateResidencyTicks::UNDEFINED   2147483750                       # Cumulative time (in ticks) in various power states (Tick)
system.mem_ctrls21.power_state.pwrStateResidencyTicks::UNDEFINED   2147483750                       # Cumulative time (in ticks) in various power states (Tick)
system.mem_ctrls22.power_state.pwrStateResidencyTicks::UNDEFINED   2147483750                       # Cumulative time (in ticks) in various power states (Tick)
system.mem_ctrls23.power_state.pwrStateResidencyTicks::UNDEFINED   2147483750                       # Cumulative time (in ticks) in various power states (Tick)
system.mem_ctrls24.power_state.pwrStateResidencyTicks::UNDEFINED   2147483750                       # Cumulative time (in ticks) in various power states (Tick)
system.mem_ctrls25.power_state.pwrStateResidencyTicks::UNDEFINED   2147483750                       # Cumulative time (in ticks) in various power states (Tick)
system.mem_ctrls26.power_state.pwrStateResidencyTicks::UNDEFINED   2147483750                       # Cumulative time (in ticks) in various power states (Tick)
system.mem_ctrls27.power_state.pwrStateResidencyTicks::UNDEFINED   2147483750                       # Cumulative time (in ticks) in various power states (Tick)
system.mem_ctrls28.power_state.pwrStateResidencyTicks::UNDEFINED   2147483750                       # Cumulative time (in ticks) in various power states (Tick)
system.mem_ctrls29.power_state.pwrStateResidencyTicks::UNDEFINED   2147483750                       # Cumulative time (in ticks) in various power states (Tick)
system.mem_ctrls3.power_state.pwrStateResidencyTicks::UNDEFINED   2147483750                       # Cumulative time (in ticks) in various power states (Tick)
system.mem_ctrls30.power_state.pwrStateResidencyTicks::UNDEFINED   2147483750                       # Cumulative time (in ticks) in various power states (Tick)
system.mem_ctrls31.power_state.pwrStateResidencyTicks::UNDEFINED   2147483750                       # Cumulative time (in ticks) in various power states (Tick)
system.mem_ctrls32.power_state.pwrStateResidencyTicks::UNDEFINED   2147483750                       # Cumulative time (in ticks) in various power states (Tick)
system.mem_ctrls33.power_state.pwrStateResidencyTicks::UNDEFINED   2147483750                       # Cumulative time (in ticks) in various power states (Tick)
system.mem_ctrls34.power_state.pwrStateResidencyTicks::UNDEFINED   2147483750                       # Cumulative time (in ticks) in various power states (Tick)
system.mem_ctrls35.power_state.pwrStateResidencyTicks::UNDEFINED   2147483750                       # Cumulative time (in ticks) in various power states (Tick)
system.mem_ctrls36.power_state.pwrStateResidencyTicks::UNDEFINED   2147483750                       # Cumulative time (in ticks) in various power states (Tick)
system.mem_ctrls37.power_state.pwrStateResidencyTicks::UNDEFINED   2147483750                       # Cumulative time (in ticks) in various power states (Tick)
system.mem_ctrls38.power_state.pwrStateResidencyTicks::UNDEFINED   2147483750                       # Cumulative time (in ticks) in various power states (Tick)
system.mem_ctrls39.power_state.pwrStateResidencyTicks::UNDEFINED   2147483750                       # Cumulative time (in ticks) in various power states (Tick)
system.mem_ctrls4.power_state.pwrStateResidencyTicks::UNDEFINED   2147483750                       # Cumulative time (in ticks) in various power states (Tick)
system.mem_ctrls40.power_state.pwrStateResidencyTicks::UNDEFINED   2147483750                       # Cumulative time (in ticks) in various power states (Tick)
system.mem_ctrls41.power_state.pwrStateResidencyTicks::UNDEFINED   2147483750                       # Cumulative time (in ticks) in various power states (Tick)
system.mem_ctrls42.power_state.pwrStateResidencyTicks::UNDEFINED   2147483750                       # Cumulative time (in ticks) in various power states (Tick)
system.mem_ctrls43.power_state.pwrStateResidencyTicks::UNDEFINED   2147483750                       # Cumulative time (in ticks) in various power states (Tick)
system.mem_ctrls44.power_state.pwrStateResidencyTicks::UNDEFINED   2147483750                       # Cumulative time (in ticks) in various power states (Tick)
system.mem_ctrls45.power_state.pwrStateResidencyTicks::UNDEFINED   2147483750                       # Cumulative time (in ticks) in various power states (Tick)
system.mem_ctrls46.power_state.pwrStateResidencyTicks::UNDEFINED   2147483750                       # Cumulative time (in ticks) in various power states (Tick)
system.mem_ctrls47.power_state.pwrStateResidencyTicks::UNDEFINED   2147483750                       # Cumulative time (in ticks) in various power states (Tick)
system.mem_ctrls48.power_state.pwrStateResidencyTicks::UNDEFINED   2147483750                       # Cumulative time (in ticks) in various power states (Tick)
system.mem_ctrls49.power_state.pwrStateResidencyTicks::UNDEFINED   2147483750                       # Cumulative time (in ticks) in various power states (Tick)
system.mem_ctrls5.power_state.pwrStateResidencyTicks::UNDEFINED   2147483750                       # Cumulative time (in ticks) in various power states (Tick)
system.mem_ctrls50.power_state.pwrStateResidencyTicks::UNDEFINED   2147483750                       # Cumulative time (in ticks) in various power states (Tick)
system.mem_ctrls51.power_state.pwrStateResidencyTicks::UNDEFINED   2147483750                       # Cumulative time (in ticks) in various power states (Tick)
system.mem_ctrls52.power_state.pwrStateResidencyTicks::UNDEFINED   2147483750                       # Cumulative time (in ticks) in various power states (Tick)
system.mem_ctrls53.power_state.pwrStateResidencyTicks::UNDEFINED   2147483750                       # Cumulative time (in ticks) in various power states (Tick)
system.mem_ctrls54.power_state.pwrStateResidencyTicks::UNDEFINED   2147483750                       # Cumulative time (in ticks) in various power states (Tick)
system.mem_ctrls55.power_state.pwrStateResidencyTicks::UNDEFINED   2147483750                       # Cumulative time (in ticks) in various power states (Tick)
system.mem_ctrls56.power_state.pwrStateResidencyTicks::UNDEFINED   2147483750                       # Cumulative time (in ticks) in various power states (Tick)
system.mem_ctrls57.power_state.pwrStateResidencyTicks::UNDEFINED   2147483750                       # Cumulative time (in ticks) in various power states (Tick)
system.mem_ctrls58.power_state.pwrStateResidencyTicks::UNDEFINED   2147483750                       # Cumulative time (in ticks) in various power states (Tick)
system.mem_ctrls59.power_state.pwrStateResidencyTicks::UNDEFINED   2147483750                       # Cumulative time (in ticks) in various power states (Tick)
system.mem_ctrls6.power_state.pwrStateResidencyTicks::UNDEFINED   2147483750                       # Cumulative time (in ticks) in various power states (Tick)
system.mem_ctrls60.power_state.pwrStateResidencyTicks::UNDEFINED   2147483750                       # Cumulative time (in ticks) in various power states (Tick)
system.mem_ctrls61.power_state.pwrStateResidencyTicks::UNDEFINED   2147483750                       # Cumulative time (in ticks) in various power states (Tick)
system.mem_ctrls62.power_state.pwrStateResidencyTicks::UNDEFINED   2147483750                       # Cumulative time (in ticks) in various power states (Tick)
system.mem_ctrls63.power_state.pwrStateResidencyTicks::UNDEFINED   2147483750                       # Cumulative time (in ticks) in various power states (Tick)
system.mem_ctrls64.power_state.pwrStateResidencyTicks::UNDEFINED   2147483750                       # Cumulative time (in ticks) in various power states (Tick)
system.mem_ctrls65.power_state.pwrStateResidencyTicks::UNDEFINED   2147483750                       # Cumulative time (in ticks) in various power states (Tick)
system.mem_ctrls66.power_state.pwrStateResidencyTicks::UNDEFINED   2147483750                       # Cumulative time (in ticks) in various power states (Tick)
system.mem_ctrls67.power_state.pwrStateResidencyTicks::UNDEFINED   2147483750                       # Cumulative time (in ticks) in various power states (Tick)
system.mem_ctrls68.power_state.pwrStateResidencyTicks::UNDEFINED   2147483750                       # Cumulative time (in ticks) in various power states (Tick)
system.mem_ctrls69.power_state.pwrStateResidencyTicks::UNDEFINED   2147483750                       # Cumulative time (in ticks) in various power states (Tick)
system.mem_ctrls7.power_state.pwrStateResidencyTicks::UNDEFINED   2147483750                       # Cumulative time (in ticks) in various power states (Tick)
system.mem_ctrls70.power_state.pwrStateResidencyTicks::UNDEFINED   2147483750                       # Cumulative time (in ticks) in various power states (Tick)
system.mem_ctrls71.power_state.pwrStateResidencyTicks::UNDEFINED   2147483750                       # Cumulative time (in ticks) in various power states (Tick)
system.mem_ctrls72.power_state.pwrStateResidencyTicks::UNDEFINED   2147483750                       # Cumulative time (in ticks) in various power states (Tick)
system.mem_ctrls73.power_state.pwrStateResidencyTicks::UNDEFINED   2147483750                       # Cumulative time (in ticks) in various power states (Tick)
system.mem_ctrls74.power_state.pwrStateResidencyTicks::UNDEFINED   2147483750                       # Cumulative time (in ticks) in various power states (Tick)
system.mem_ctrls75.power_state.pwrStateResidencyTicks::UNDEFINED   2147483750                       # Cumulative time (in ticks) in various power states (Tick)
system.mem_ctrls76.power_state.pwrStateResidencyTicks::UNDEFINED   2147483750                       # Cumulative time (in ticks) in various power states (Tick)
system.mem_ctrls77.power_state.pwrStateResidencyTicks::UNDEFINED   2147483750                       # Cumulative time (in ticks) in various power states (Tick)
system.mem_ctrls78.power_state.pwrStateResidencyTicks::UNDEFINED   2147483750                       # Cumulative time (in ticks) in various power states (Tick)
system.mem_ctrls79.power_state.pwrStateResidencyTicks::UNDEFINED   2147483750                       # Cumulative time (in ticks) in various power states (Tick)
system.mem_ctrls8.power_state.pwrStateResidencyTicks::UNDEFINED   2147483750                       # Cumulative time (in ticks) in various power states (Tick)
system.mem_ctrls80.power_state.pwrStateResidencyTicks::UNDEFINED   2147483750                       # Cumulative time (in ticks) in various power states (Tick)
system.mem_ctrls81.power_state.pwrStateResidencyTicks::UNDEFINED   2147483750                       # Cumulative time (in ticks) in various power states (Tick)
system.mem_ctrls82.power_state.pwrStateResidencyTicks::UNDEFINED   2147483750                       # Cumulative time (in ticks) in various power states (Tick)
system.mem_ctrls83.power_state.pwrStateResidencyTicks::UNDEFINED   2147483750                       # Cumulative time (in ticks) in various power states (Tick)
system.mem_ctrls84.power_state.pwrStateResidencyTicks::UNDEFINED   2147483750                       # Cumulative time (in ticks) in various power states (Tick)
system.mem_ctrls85.power_state.pwrStateResidencyTicks::UNDEFINED   2147483750                       # Cumulative time (in ticks) in various power states (Tick)
system.mem_ctrls86.power_state.pwrStateResidencyTicks::UNDEFINED   2147483750                       # Cumulative time (in ticks) in various power states (Tick)
system.mem_ctrls87.power_state.pwrStateResidencyTicks::UNDEFINED   2147483750                       # Cumulative time (in ticks) in various power states (Tick)
system.mem_ctrls88.power_state.pwrStateResidencyTicks::UNDEFINED   2147483750                       # Cumulative time (in ticks) in various power states (Tick)
system.mem_ctrls89.power_state.pwrStateResidencyTicks::UNDEFINED   2147483750                       # Cumulative time (in ticks) in various power states (Tick)
system.mem_ctrls9.power_state.pwrStateResidencyTicks::UNDEFINED   2147483750                       # Cumulative time (in ticks) in various power states (Tick)
system.mem_ctrls90.power_state.pwrStateResidencyTicks::UNDEFINED   2147483750                       # Cumulative time (in ticks) in various power states (Tick)
system.mem_ctrls91.power_state.pwrStateResidencyTicks::UNDEFINED   2147483750                       # Cumulative time (in ticks) in various power states (Tick)
system.mem_ctrls92.power_state.pwrStateResidencyTicks::UNDEFINED   2147483750                       # Cumulative time (in ticks) in various power states (Tick)
system.mem_ctrls93.power_state.pwrStateResidencyTicks::UNDEFINED   2147483750                       # Cumulative time (in ticks) in various power states (Tick)
system.mem_ctrls94.power_state.pwrStateResidencyTicks::UNDEFINED   2147483750                       # Cumulative time (in ticks) in various power states (Tick)
system.mem_ctrls95.power_state.pwrStateResidencyTicks::UNDEFINED   2147483750                       # Cumulative time (in ticks) in various power states (Tick)
system.mem_ctrls96.power_state.pwrStateResidencyTicks::UNDEFINED   2147483750                       # Cumulative time (in ticks) in various power states (Tick)
system.mem_ctrls97.power_state.pwrStateResidencyTicks::UNDEFINED   2147483750                       # Cumulative time (in ticks) in various power states (Tick)
system.mem_ctrls98.power_state.pwrStateResidencyTicks::UNDEFINED   2147483750                       # Cumulative time (in ticks) in various power states (Tick)
system.mem_ctrls99.power_state.pwrStateResidencyTicks::UNDEFINED   2147483750                       # Cumulative time (in ticks) in various power states (Tick)
system.ruby.m_outstandReqHistSeqr::bucket_size            1                       (Unspecified)
system.ruby.m_outstandReqHistSeqr::max_bucket            9                       (Unspecified)
system.ruby.m_outstandReqHistSeqr::samples     36037118                       (Unspecified)
system.ruby.m_outstandReqHistSeqr::mean             1                       (Unspecified)
system.ruby.m_outstandReqHistSeqr::gmean            1                       (Unspecified)
system.ruby.m_outstandReqHistSeqr        |           0      0.00%      0.00% |    36037118    100.00%    100.00% |           0      0.00%    100.00% |           0      0.00%    100.00% |           0      0.00%    100.00% |           0      0.00%    100.00% |           0      0.00%    100.00% |           0      0.00%    100.00% |           0      0.00%    100.00% |           0      0.00%    100.00% (Unspecified)
system.ruby.m_outstandReqHistSeqr::total     36037118                       (Unspecified)
system.ruby.m_latencyHistSeqr::bucket_size            1                       (Unspecified)
system.ruby.m_latencyHistSeqr::max_bucket            9                       (Unspecified)
system.ruby.m_latencyHistSeqr::samples       36037116                       (Unspecified)
system.ruby.m_latencyHistSeqr::mean                 1                       (Unspecified)
system.ruby.m_latencyHistSeqr::gmean                1                       (Unspecified)
system.ruby.m_latencyHistSeqr            |           0      0.00%      0.00% |    36037116    100.00%    100.00% |           0      0.00%    100.00% |           0      0.00%    100.00% |           0      0.00%    100.00% |           0      0.00%    100.00% |           0      0.00%    100.00% |           0      0.00%    100.00% |           0      0.00%    100.00% |           0      0.00%    100.00% (Unspecified)
system.ruby.m_latencyHistSeqr::total         36037116                       (Unspecified)
system.ruby.m_hitLatencyHistSeqr::bucket_size            1                       (Unspecified)
system.ruby.m_hitLatencyHistSeqr::max_bucket            9                       (Unspecified)
system.ruby.m_hitLatencyHistSeqr::samples     36037116                       (Unspecified)
system.ruby.m_hitLatencyHistSeqr::mean              1                       (Unspecified)
system.ruby.m_hitLatencyHistSeqr::gmean             1                       (Unspecified)
system.ruby.m_hitLatencyHistSeqr         |           0      0.00%      0.00% |    36037116    100.00%    100.00% |           0      0.00%    100.00% |           0      0.00%    100.00% |           0      0.00%    100.00% |           0      0.00%    100.00% |           0      0.00%    100.00% |           0      0.00%    100.00% |           0      0.00%    100.00% |           0      0.00%    100.00% (Unspecified)
system.ruby.m_hitLatencyHistSeqr::total      36037116                       (Unspecified)
system.ruby.Directory_Controller.Receive_Request |      112001      0.62%      0.62% |      112431      0.62%      1.25% |      112370      0.62%      1.87% |      112654      0.63%      2.49% |      112876      0.63%      3.12% |      112465      0.62%      3.74% |      112724      0.63%      4.37% |      112989      0.63%      5.00% |      113254      0.63%      5.63% |      112535      0.62%      6.25% |      112471      0.62%      6.87% |      112516      0.62%      7.50% |      112471      0.62%      8.12% |      112598      0.62%      8.75% |      112231      0.62%      9.37% |      112167      0.62%      9.99% |      112528      0.62%     10.62% |      113108      0.63%     11.25% |      112628      0.63%     11.87% |      112820      0.63%     12.50% |      113034      0.63%     13.12% |      112797      0.63%     13.75% |      112682      0.63%     14.38% |      112217      0.62%     15.00% |      112268      0.62%     15.62% |      113153      0.63%     16.25% |      112421      0.62%     16.87% |      113286      0.63%     17.50% |      112699      0.63%     18.13% |      113153      0.63%     18.76% |      112686      0.63%     19.38% |      112659      0.63%     20.01% |      112819      0.63%     20.63% |      112579      0.62%     21.26% |      112575      0.62%     21.88% |      112525      0.62%     22.51% |      112613      0.62%     23.13% |      112518      0.62%     23.76% |      112739      0.63%     24.38% |      112246      0.62%     25.00% |      112592      0.62%     25.63% |      112407      0.62%     26.25% |      112562      0.62%     26.88% |      112908      0.63%     27.50% |      112302      0.62%     28.13% |      113100      0.63%     28.76% |      112535      0.62%     29.38% |      112287      0.62%     30.00% |      112438      0.62%     30.63% |      112607      0.62%     31.25% |      112963      0.63%     31.88% |      112654      0.63%     32.50% |      112488      0.62%     33.13% |      112654      0.63%     33.75% |      112421      0.62%     34.38% |      112649      0.63%     35.00% |      112427      0.62%     35.63% |      112700      0.63%     36.25% |      112661      0.63%     36.88% |      112896      0.63%     37.50% |      112751      0.63%     38.13% |      112051      0.62%     38.75% |      112797      0.63%     39.38% |      112664      0.63%     40.00% |      112501      0.62%     40.63% |      112444      0.62%     41.25% |      112936      0.63%     41.88% |      112373      0.62%     42.50% |      112339      0.62%     43.12% |      112801      0.63%     43.75% |      112404      0.62%     44.37% |      113110      0.63%     45.00% |      112278      0.62%     45.63% |      112392      0.62%     46.25% |      112318      0.62%     46.87% |      113173      0.63%     47.50% |      113228      0.63%     48.13% |      112049      0.62%     48.75% |      112553      0.62%     49.38% |      112616      0.62%     50.00% |      112471      0.62%     50.62% |      112300      0.62%     51.25% |      112173      0.62%     51.87% |      112723      0.63%     52.50% |      112320      0.62%     53.12% |      112847      0.63%     53.75% |      112418      0.62%     54.37% |      112895      0.63%     55.00% |      113003      0.63%     55.62% |      112227      0.62%     56.25% |      112793      0.63%     56.87% |      113180      0.63%     57.50% |      112604      0.62%     58.13% |      112849      0.63%     58.75% |      113291      0.63%     59.38% |      112844      0.63%     60.01% |      112842      0.63%     60.63% |      112617      0.62%     61.26% |      112536      0.62%     61.88% |      112580      0.62%     62.51% |      113248      0.63%     63.14% |      112312      0.62%     63.76% |      112650      0.63%     64.38% |      112351      0.62%     65.01% |      112359      0.62%     65.63% |      112408      0.62%     66.25% |      112849      0.63%     66.88% |      112728      0.63%     67.51% |      112363      0.62%     68.13% |      112448      0.62%     68.75% |      112452      0.62%     69.38% |      112795      0.63%     70.00% |      113055      0.63%     70.63% |      112542      0.62%     71.26% |      113306      0.63%     71.89% |      112648      0.63%     72.51% |      113023      0.63%     73.14% |      112181      0.62%     73.76% |      112729      0.63%     74.39% |      112372      0.62%     75.01% |      111551      0.62%     75.63% |      112617      0.62%     76.25% |      112679      0.63%     76.88% |      113027      0.63%     77.51% |      112646      0.63%     78.13% |      112444      0.62%     78.76% |      112428      0.62%     79.38% |      112588      0.62%     80.00% |      112561      0.62%     80.63% |      112836      0.63%     81.26% |      112229      0.62%     81.88% |      112809      0.63%     82.50% |      112645      0.63%     83.13% |      112870      0.63%     83.76% |      112767      0.63%     84.38% |      112489      0.62%     85.01% |      112090      0.62%     85.63% |      112254      0.62%     86.25% |      112432      0.62%     86.87% |      112855      0.63%     87.50% |      112611      0.62%     88.13% |      112548      0.62%     88.75% |      112507      0.62%     89.38% |      112602      0.62%     90.00% |      111955      0.62%     90.62% |      112582      0.62%     91.25% |      112717      0.63%     91.87% |      112343      0.62%     92.50% |      112429      0.62%     93.12% |      112692      0.63%     93.74% |      112768      0.63%     94.37% |      112615      0.62%     95.00% |      112890      0.63%     95.62% |      112838      0.63%     96.25% |      112458      0.62%     96.87% |      113034      0.63%     97.50% |      112825      0.63%     98.13% |      112132      0.62%     98.75% |      113254      0.63%     99.38% |      112366      0.62%    100.00% (Unspecified)
system.ruby.Directory_Controller.Receive_Request::total     18018850                       (Unspecified)
system.ruby.Directory_Controller.Receive_Response |       57343      0.63%      0.63% |       56639      0.62%      1.25% |       57385      0.63%      1.88% |       57044      0.63%      2.50% |       56927      0.62%      3.13% |       57015      0.63%      3.75% |       56792      0.62%      4.38% |       57094      0.63%      5.00% |       56954      0.62%      5.63% |       56956      0.62%      6.25% |       57116      0.63%      6.88% |       57420      0.63%      7.51% |       56872      0.62%      8.13% |       57246      0.63%      8.76% |       56665      0.62%      9.38% |       56667      0.62%     10.00% |       56732      0.62%     10.62% |       56735      0.62%     11.24% |       56549      0.62%     11.86% |       56697      0.62%     12.49% |       57101      0.63%     13.11% |       57413      0.63%     13.74% |       57229      0.63%     14.37% |       56887      0.62%     14.99% |       56923      0.62%     15.62% |       56811      0.62%     16.24% |       57057      0.63%     16.87% |       56869      0.62%     17.49% |       56769      0.62%     18.11% |       56946      0.62%     18.74% |       56900      0.62%     19.36% |       56773      0.62%     19.98% |       56796      0.62%     20.61% |       57159      0.63%     21.23% |       57164      0.63%     21.86% |       56938      0.62%     22.48% |       57157      0.63%     23.11% |       57121      0.63%     23.74% |       57072      0.63%     24.36% |       57309      0.63%     24.99% |       57199      0.63%     25.62% |       57101      0.63%     26.24% |       56734      0.62%     26.87% |       56794      0.62%     27.49% |       57102      0.63%     28.11% |       57066      0.63%     28.74% |       56902      0.62%     29.36% |       57270      0.63%     29.99% |       56795      0.62%     30.61% |       56781      0.62%     31.24% |       56806      0.62%     31.86% |       56870      0.62%     32.48% |       56765      0.62%     33.11% |       57159      0.63%     33.73% |       56997      0.62%     34.36% |       57005      0.63%     34.98% |       56711      0.62%     35.60% |       56915      0.62%     36.23% |       57169      0.63%     36.86% |       57175      0.63%     37.48% |       57005      0.63%     38.11% |       56335      0.62%     38.72% |       57043      0.63%     39.35% |       57385      0.63%     39.98% |       56879      0.62%     40.60% |       56950      0.62%     41.23% |       57110      0.63%     41.85% |       56666      0.62%     42.47% |       57009      0.63%     43.10% |       56965      0.62%     43.72% |       56905      0.62%     44.35% |       56815      0.62%     44.97% |       56933      0.62%     45.60% |       56861      0.62%     46.22% |       57517      0.63%     46.85% |       57263      0.63%     47.48% |       57108      0.63%     48.10% |       56835      0.62%     48.73% |       57081      0.63%     49.35% |       57032      0.63%     49.98% |       57355      0.63%     50.61% |       57310      0.63%     51.24% |       56873      0.62%     51.86% |       57007      0.63%     52.48% |       57330      0.63%     53.11% |       57188      0.63%     53.74% |       57359      0.63%     54.37% |       57121      0.63%     54.99% |       57113      0.63%     55.62% |       57104      0.63%     56.25% |       56572      0.62%     56.87% |       56580      0.62%     57.49% |       57132      0.63%     58.11% |       56956      0.62%     58.74% |       56889      0.62%     59.36% |       56639      0.62%     59.98% |       57210      0.63%     60.61% |       57030      0.63%     61.24% |       57221      0.63%     61.86% |       56841      0.62%     62.49% |       57538      0.63%     63.12% |       56945      0.62%     63.74% |       57249      0.63%     64.37% |       56913      0.62%     64.99% |       56861      0.62%     65.62% |       57441      0.63%     66.25% |       56866      0.62%     66.87% |       56832      0.62%     67.49% |       56628      0.62%     68.11% |       56793      0.62%     68.74% |       56908      0.62%     69.36% |       57354      0.63%     69.99% |       57497      0.63%     70.62% |       57307      0.63%     71.25% |       56940      0.62%     71.87% |       57089      0.63%     72.50% |       57157      0.63%     73.13% |       57219      0.63%     73.75% |       56797      0.62%     74.38% |       56890      0.62%     75.00% |       57326      0.63%     75.63% |       56999      0.62%     76.25% |       57086      0.63%     76.88% |       57006      0.63%     77.50% |       56957      0.62%     78.13% |       57067      0.63%     78.75% |       56793      0.62%     79.38% |       56982      0.62%     80.00% |       57073      0.63%     80.63% |       57058      0.63%     81.25% |       57246      0.63%     81.88% |       56800      0.62%     82.50% |       57102      0.63%     83.13% |       56977      0.62%     83.75% |       56744      0.62%     84.38% |       57010      0.63%     85.00% |       57240      0.63%     85.63% |       56720      0.62%     86.25% |       57082      0.63%     86.88% |       56927      0.62%     87.50% |       57182      0.63%     88.13% |       56925      0.62%     88.75% |       57164      0.63%     89.38% |       57179      0.63%     90.01% |       56938      0.62%     90.63% |       56935      0.62%     91.25% |       56971      0.62%     91.88% |       57191      0.63%     92.51% |       57245      0.63%     93.13% |       56687      0.62%     93.75% |       56994      0.62%     94.38% |       56814      0.62%     95.00% |       56674      0.62%     95.62% |       57237      0.63%     96.25% |       56919      0.62%     96.88% |       56887      0.62%     97.50% |       56909      0.62%     98.12% |       57073      0.63%     98.75% |       57298      0.63%     99.38% |       56821      0.62%    100.00% (Unspecified)
system.ruby.Directory_Controller.Receive_Response::total      9120547                       (Unspecified)
system.ruby.Directory_Controller.I.Receive_Request |      112001      0.62%      0.62% |      112431      0.62%      1.25% |      112370      0.62%      1.87% |      112654      0.63%      2.49% |      112876      0.63%      3.12% |      112465      0.62%      3.74% |      112724      0.63%      4.37% |      112989      0.63%      5.00% |      113254      0.63%      5.63% |      112535      0.62%      6.25% |      112471      0.62%      6.87% |      112516      0.62%      7.50% |      112471      0.62%      8.12% |      112598      0.62%      8.75% |      112231      0.62%      9.37% |      112167      0.62%      9.99% |      112528      0.62%     10.62% |      113108      0.63%     11.25% |      112628      0.63%     11.87% |      112820      0.63%     12.50% |      113034      0.63%     13.12% |      112797      0.63%     13.75% |      112682      0.63%     14.38% |      112217      0.62%     15.00% |      112268      0.62%     15.62% |      113153      0.63%     16.25% |      112421      0.62%     16.87% |      113286      0.63%     17.50% |      112699      0.63%     18.13% |      113153      0.63%     18.76% |      112686      0.63%     19.38% |      112659      0.63%     20.01% |      112819      0.63%     20.63% |      112579      0.62%     21.26% |      112575      0.62%     21.88% |      112525      0.62%     22.51% |      112613      0.62%     23.13% |      112518      0.62%     23.76% |      112739      0.63%     24.38% |      112246      0.62%     25.00% |      112592      0.62%     25.63% |      112407      0.62%     26.25% |      112562      0.62%     26.88% |      112908      0.63%     27.50% |      112302      0.62%     28.13% |      113100      0.63%     28.76% |      112535      0.62%     29.38% |      112287      0.62%     30.00% |      112438      0.62%     30.63% |      112607      0.62%     31.25% |      112963      0.63%     31.88% |      112654      0.63%     32.50% |      112488      0.62%     33.13% |      112654      0.63%     33.75% |      112421      0.62%     34.38% |      112649      0.63%     35.00% |      112427      0.62%     35.63% |      112700      0.63%     36.25% |      112661      0.63%     36.88% |      112896      0.63%     37.50% |      112751      0.63%     38.13% |      112051      0.62%     38.75% |      112797      0.63%     39.38% |      112664      0.63%     40.00% |      112501      0.62%     40.63% |      112444      0.62%     41.25% |      112936      0.63%     41.88% |      112373      0.62%     42.50% |      112339      0.62%     43.12% |      112801      0.63%     43.75% |      112404      0.62%     44.37% |      113110      0.63%     45.00% |      112278      0.62%     45.63% |      112392      0.62%     46.25% |      112318      0.62%     46.87% |      113173      0.63%     47.50% |      113228      0.63%     48.13% |      112049      0.62%     48.75% |      112553      0.62%     49.38% |      112616      0.62%     50.00% |      112471      0.62%     50.62% |      112300      0.62%     51.25% |      112173      0.62%     51.87% |      112723      0.63%     52.50% |      112320      0.62%     53.12% |      112847      0.63%     53.75% |      112418      0.62%     54.37% |      112895      0.63%     55.00% |      113003      0.63%     55.62% |      112227      0.62%     56.25% |      112793      0.63%     56.87% |      113180      0.63%     57.50% |      112604      0.62%     58.13% |      112849      0.63%     58.75% |      113291      0.63%     59.38% |      112844      0.63%     60.01% |      112842      0.63%     60.63% |      112617      0.62%     61.26% |      112536      0.62%     61.88% |      112580      0.62%     62.51% |      113248      0.63%     63.14% |      112312      0.62%     63.76% |      112650      0.63%     64.38% |      112351      0.62%     65.01% |      112359      0.62%     65.63% |      112408      0.62%     66.25% |      112849      0.63%     66.88% |      112728      0.63%     67.51% |      112363      0.62%     68.13% |      112448      0.62%     68.75% |      112452      0.62%     69.38% |      112795      0.63%     70.00% |      113055      0.63%     70.63% |      112542      0.62%     71.26% |      113306      0.63%     71.89% |      112648      0.63%     72.51% |      113023      0.63%     73.14% |      112181      0.62%     73.76% |      112729      0.63%     74.39% |      112372      0.62%     75.01% |      111551      0.62%     75.63% |      112617      0.62%     76.25% |      112679      0.63%     76.88% |      113027      0.63%     77.51% |      112646      0.63%     78.13% |      112444      0.62%     78.76% |      112428      0.62%     79.38% |      112588      0.62%     80.00% |      112561      0.62%     80.63% |      112836      0.63%     81.26% |      112229      0.62%     81.88% |      112809      0.63%     82.50% |      112645      0.63%     83.13% |      112870      0.63%     83.76% |      112767      0.63%     84.38% |      112489      0.62%     85.01% |      112090      0.62%     85.63% |      112254      0.62%     86.25% |      112432      0.62%     86.87% |      112855      0.63%     87.50% |      112611      0.62%     88.13% |      112548      0.62%     88.75% |      112507      0.62%     89.38% |      112602      0.62%     90.00% |      111955      0.62%     90.62% |      112582      0.62%     91.25% |      112717      0.63%     91.87% |      112343      0.62%     92.50% |      112429      0.62%     93.12% |      112692      0.63%     93.74% |      112768      0.63%     94.37% |      112615      0.62%     95.00% |      112890      0.63%     95.62% |      112838      0.63%     96.25% |      112458      0.62%     96.87% |      113034      0.63%     97.50% |      112825      0.63%     98.13% |      112132      0.62%     98.75% |      113254      0.63%     99.38% |      112366      0.62%    100.00% (Unspecified)
system.ruby.Directory_Controller.I.Receive_Request::total     18018850                       (Unspecified)
system.ruby.Directory_Controller.I.Receive_Response |       57343      0.63%      0.63% |       56639      0.62%      1.25% |       57385      0.63%      1.88% |       57044      0.63%      2.50% |       56927      0.62%      3.13% |       57015      0.63%      3.75% |       56792      0.62%      4.38% |       57094      0.63%      5.00% |       56954      0.62%      5.63% |       56956      0.62%      6.25% |       57116      0.63%      6.88% |       57420      0.63%      7.51% |       56872      0.62%      8.13% |       57246      0.63%      8.76% |       56665      0.62%      9.38% |       56667      0.62%     10.00% |       56732      0.62%     10.62% |       56735      0.62%     11.24% |       56549      0.62%     11.86% |       56697      0.62%     12.49% |       57101      0.63%     13.11% |       57413      0.63%     13.74% |       57229      0.63%     14.37% |       56887      0.62%     14.99% |       56923      0.62%     15.62% |       56811      0.62%     16.24% |       57057      0.63%     16.87% |       56869      0.62%     17.49% |       56769      0.62%     18.11% |       56946      0.62%     18.74% |       56900      0.62%     19.36% |       56773      0.62%     19.98% |       56796      0.62%     20.61% |       57159      0.63%     21.23% |       57164      0.63%     21.86% |       56938      0.62%     22.48% |       57157      0.63%     23.11% |       57121      0.63%     23.74% |       57072      0.63%     24.36% |       57309      0.63%     24.99% |       57199      0.63%     25.62% |       57101      0.63%     26.24% |       56734      0.62%     26.87% |       56794      0.62%     27.49% |       57102      0.63%     28.11% |       57066      0.63%     28.74% |       56902      0.62%     29.36% |       57270      0.63%     29.99% |       56795      0.62%     30.61% |       56781      0.62%     31.24% |       56806      0.62%     31.86% |       56870      0.62%     32.48% |       56765      0.62%     33.11% |       57159      0.63%     33.73% |       56997      0.62%     34.36% |       57005      0.63%     34.98% |       56711      0.62%     35.60% |       56915      0.62%     36.23% |       57169      0.63%     36.86% |       57175      0.63%     37.48% |       57005      0.63%     38.11% |       56335      0.62%     38.72% |       57043      0.63%     39.35% |       57385      0.63%     39.98% |       56879      0.62%     40.60% |       56950      0.62%     41.23% |       57110      0.63%     41.85% |       56666      0.62%     42.47% |       57009      0.63%     43.10% |       56965      0.62%     43.72% |       56905      0.62%     44.35% |       56815      0.62%     44.97% |       56933      0.62%     45.60% |       56861      0.62%     46.22% |       57517      0.63%     46.85% |       57263      0.63%     47.48% |       57108      0.63%     48.10% |       56835      0.62%     48.73% |       57081      0.63%     49.35% |       57032      0.63%     49.98% |       57355      0.63%     50.61% |       57310      0.63%     51.24% |       56873      0.62%     51.86% |       57007      0.63%     52.48% |       57330      0.63%     53.11% |       57188      0.63%     53.74% |       57359      0.63%     54.37% |       57121      0.63%     54.99% |       57113      0.63%     55.62% |       57104      0.63%     56.25% |       56572      0.62%     56.87% |       56580      0.62%     57.49% |       57132      0.63%     58.11% |       56956      0.62%     58.74% |       56889      0.62%     59.36% |       56639      0.62%     59.98% |       57210      0.63%     60.61% |       57030      0.63%     61.24% |       57221      0.63%     61.86% |       56841      0.62%     62.49% |       57538      0.63%     63.12% |       56945      0.62%     63.74% |       57249      0.63%     64.37% |       56913      0.62%     64.99% |       56861      0.62%     65.62% |       57441      0.63%     66.25% |       56866      0.62%     66.87% |       56832      0.62%     67.49% |       56628      0.62%     68.11% |       56793      0.62%     68.74% |       56908      0.62%     69.36% |       57354      0.63%     69.99% |       57497      0.63%     70.62% |       57307      0.63%     71.25% |       56940      0.62%     71.87% |       57089      0.63%     72.50% |       57157      0.63%     73.13% |       57219      0.63%     73.75% |       56797      0.62%     74.38% |       56890      0.62%     75.00% |       57326      0.63%     75.63% |       56999      0.62%     76.25% |       57086      0.63%     76.88% |       57006      0.63%     77.50% |       56957      0.62%     78.13% |       57067      0.63%     78.75% |       56793      0.62%     79.38% |       56982      0.62%     80.00% |       57073      0.63%     80.63% |       57058      0.63%     81.25% |       57246      0.63%     81.88% |       56800      0.62%     82.50% |       57102      0.63%     83.13% |       56977      0.62%     83.75% |       56744      0.62%     84.38% |       57010      0.63%     85.00% |       57240      0.63%     85.63% |       56720      0.62%     86.25% |       57082      0.63%     86.88% |       56927      0.62%     87.50% |       57182      0.63%     88.13% |       56925      0.62%     88.75% |       57164      0.63%     89.38% |       57179      0.63%     90.01% |       56938      0.62%     90.63% |       56935      0.62%     91.25% |       56971      0.62%     91.88% |       57191      0.63%     92.51% |       57245      0.63%     93.13% |       56687      0.62%     93.75% |       56994      0.62%     94.38% |       56814      0.62%     95.00% |       56674      0.62%     95.62% |       57237      0.63%     96.25% |       56919      0.62%     96.88% |       56887      0.62%     97.50% |       56909      0.62%     98.12% |       57073      0.63%     98.75% |       57298      0.63%     99.38% |       56821      0.62%    100.00% (Unspecified)
system.ruby.Directory_Controller.I.Receive_Response::total      9120547                       (Unspecified)
system.ruby.L1Cache_Controller.Request   |      450589      2.50%      2.50% |      450934      2.50%      5.00% |      450703      2.50%      7.50% |      449653      2.50%     10.00% |      450276      2.50%     12.50% |      450513      2.50%     15.00% |      451350      2.50%     17.50% |      450264      2.50%     20.00% |      449545      2.49%     22.50% |      451339      2.50%     25.00% |      451542      2.51%     27.51% |      450745      2.50%     30.01% |      451726      2.51%     32.52% |      450255      2.50%     35.02% |      450099      2.50%     37.51% |      449668      2.50%     40.01% |      450089      2.50%     42.51% |      451706      2.51%     45.01% |      451203      2.50%     47.52% |      450296      2.50%     50.02% |      448547      2.49%     52.51% |      449816      2.50%     55.00% |      451308      2.50%     57.51% |      449509      2.49%     60.00% |      450518      2.50%     62.50% |      450808      2.50%     65.00% |      450759      2.50%     67.51% |      450086      2.50%     70.00% |      451172      2.50%     72.51% |      451839      2.51%     75.01% |      450224      2.50%     77.51% |      450268      2.50%     80.01% |      450380      2.50%     82.51% |      450457      2.50%     85.01% |      450359      2.50%     87.51% |      450251      2.50%     90.01% |      451067      2.50%     92.51% |      449337      2.49%     95.01% |      450007      2.50%     97.50% |      449688      2.50%    100.00% (Unspecified)
system.ruby.L1Cache_Controller.Request::total     18018895                       (Unspecified)
system.ruby.L1Cache_Controller.Response  |      448999      2.49%      2.49% |      450743      2.50%      4.99% |      450902      2.50%      7.50% |      449857      2.50%      9.99% |      449983      2.50%     12.49% |      451569      2.51%     15.00% |      449504      2.49%     17.49% |      450952      2.50%     19.99% |      450636      2.50%     22.49% |      450613      2.50%     25.00% |      450042      2.50%     27.49% |      450040      2.50%     29.99% |      449544      2.49%     32.49% |      450868      2.50%     34.99% |      450220      2.50%     37.49% |      449877      2.50%     39.98% |      450882      2.50%     42.49% |      449550      2.49%     44.98% |      450854      2.50%     47.48% |      451142      2.50%     49.99% |      451179      2.50%     52.49% |      451148      2.50%     54.99% |      451013      2.50%     57.50% |      450244      2.50%     60.00% |      451324      2.50%     62.50% |      451012      2.50%     65.00% |      450384      2.50%     67.50% |      450050      2.50%     70.00% |      450631      2.50%     72.50% |      450303      2.50%     75.00% |      450143      2.50%     77.50% |      451154      2.50%     80.00% |      451223      2.50%     82.51% |      450682      2.50%     85.01% |      449647      2.50%     87.51% |      450648      2.50%     90.01% |      449938      2.50%     92.50% |      448979      2.49%     95.00% |      451022      2.50%     97.50% |      450720      2.50%    100.00% (Unspecified)
system.ruby.L1Cache_Controller.Response::total     18018221                       (Unspecified)
system.ruby.L1Cache_Controller.I.Request |      450589      2.50%      2.50% |      450934      2.50%      5.00% |      450703      2.50%      7.50% |      449653      2.50%     10.00% |      450276      2.50%     12.50% |      450513      2.50%     15.00% |      451350      2.50%     17.50% |      450264      2.50%     20.00% |      449545      2.49%     22.50% |      451339      2.50%     25.00% |      451542      2.51%     27.51% |      450745      2.50%     30.01% |      451726      2.51%     32.52% |      450255      2.50%     35.02% |      450099      2.50%     37.51% |      449668      2.50%     40.01% |      450089      2.50%     42.51% |      451706      2.51%     45.01% |      451203      2.50%     47.52% |      450296      2.50%     50.02% |      448547      2.49%     52.51% |      449816      2.50%     55.00% |      451308      2.50%     57.51% |      449509      2.49%     60.00% |      450518      2.50%     62.50% |      450808      2.50%     65.00% |      450759      2.50%     67.51% |      450086      2.50%     70.00% |      451172      2.50%     72.51% |      451839      2.51%     75.01% |      450224      2.50%     77.51% |      450268      2.50%     80.01% |      450380      2.50%     82.51% |      450457      2.50%     85.01% |      450359      2.50%     87.51% |      450251      2.50%     90.01% |      451067      2.50%     92.51% |      449337      2.49%     95.01% |      450007      2.50%     97.50% |      449688      2.50%    100.00% (Unspecified)
system.ruby.L1Cache_Controller.I.Request::total     18018895                       (Unspecified)
system.ruby.L1Cache_Controller.I.Response |      448999      2.49%      2.49% |      450743      2.50%      4.99% |      450902      2.50%      7.50% |      449857      2.50%      9.99% |      449983      2.50%     12.49% |      451569      2.51%     15.00% |      449504      2.49%     17.49% |      450952      2.50%     19.99% |      450636      2.50%     22.49% |      450613      2.50%     25.00% |      450042      2.50%     27.49% |      450040      2.50%     29.99% |      449544      2.49%     32.49% |      450868      2.50%     34.99% |      450220      2.50%     37.49% |      449877      2.50%     39.98% |      450882      2.50%     42.49% |      449550      2.49%     44.98% |      450854      2.50%     47.48% |      451142      2.50%     49.99% |      451179      2.50%     52.49% |      451148      2.50%     54.99% |      451013      2.50%     57.50% |      450244      2.50%     60.00% |      451324      2.50%     62.50% |      451012      2.50%     65.00% |      450384      2.50%     67.50% |      450050      2.50%     70.00% |      450631      2.50%     72.50% |      450303      2.50%     75.00% |      450143      2.50%     77.50% |      451154      2.50%     80.00% |      451223      2.50%     82.51% |      450682      2.50%     85.01% |      449647      2.50%     87.51% |      450648      2.50%     90.01% |      449938      2.50%     92.50% |      448979      2.49%     95.00% |      451022      2.50%     97.50% |      450720      2.50%    100.00% (Unspecified)
system.ruby.L1Cache_Controller.I.Response::total     18018221                       (Unspecified)
system.ruby.RequestType.LD.latency_hist_seqr::bucket_size            1                       (Unspecified)
system.ruby.RequestType.LD.latency_hist_seqr::max_bucket            9                       (Unspecified)
system.ruby.RequestType.LD.latency_hist_seqr::samples     18018895                       (Unspecified)
system.ruby.RequestType.LD.latency_hist_seqr::mean            1                       (Unspecified)
system.ruby.RequestType.LD.latency_hist_seqr::gmean            1                       (Unspecified)
system.ruby.RequestType.LD.latency_hist_seqr |           0      0.00%      0.00% |    18018895    100.00%    100.00% |           0      0.00%    100.00% |           0      0.00%    100.00% |           0      0.00%    100.00% |           0      0.00%    100.00% |           0      0.00%    100.00% |           0      0.00%    100.00% |           0      0.00%    100.00% |           0      0.00%    100.00% (Unspecified)
system.ruby.RequestType.LD.latency_hist_seqr::total     18018895                       (Unspecified)
system.ruby.RequestType.LD.hit_latency_hist_seqr::bucket_size            1                       (Unspecified)
system.ruby.RequestType.LD.hit_latency_hist_seqr::max_bucket            9                       (Unspecified)
system.ruby.RequestType.LD.hit_latency_hist_seqr::samples     18018895                       (Unspecified)
system.ruby.RequestType.LD.hit_latency_hist_seqr::mean            1                       (Unspecified)
system.ruby.RequestType.LD.hit_latency_hist_seqr::gmean            1                       (Unspecified)
system.ruby.RequestType.LD.hit_latency_hist_seqr |           0      0.00%      0.00% |    18018895    100.00%    100.00% |           0      0.00%    100.00% |           0      0.00%    100.00% |           0      0.00%    100.00% |           0      0.00%    100.00% |           0      0.00%    100.00% |           0      0.00%    100.00% |           0      0.00%    100.00% |           0      0.00%    100.00% (Unspecified)
system.ruby.RequestType.LD.hit_latency_hist_seqr::total     18018895                       (Unspecified)
system.ruby.RequestType.ST.latency_hist_seqr::bucket_size            1                       (Unspecified)
system.ruby.RequestType.ST.latency_hist_seqr::max_bucket            9                       (Unspecified)
system.ruby.RequestType.ST.latency_hist_seqr::samples     18018221                       (Unspecified)
system.ruby.RequestType.ST.latency_hist_seqr::mean            1                       (Unspecified)
system.ruby.RequestType.ST.latency_hist_seqr::gmean            1                       (Unspecified)
system.ruby.RequestType.ST.latency_hist_seqr |           0      0.00%      0.00% |    18018221    100.00%    100.00% |           0      0.00%    100.00% |           0      0.00%    100.00% |           0      0.00%    100.00% |           0      0.00%    100.00% |           0      0.00%    100.00% |           0      0.00%    100.00% |           0      0.00%    100.00% |           0      0.00%    100.00% (Unspecified)
system.ruby.RequestType.ST.latency_hist_seqr::total     18018221                       (Unspecified)
system.ruby.RequestType.ST.hit_latency_hist_seqr::bucket_size            1                       (Unspecified)
system.ruby.RequestType.ST.hit_latency_hist_seqr::max_bucket            9                       (Unspecified)
system.ruby.RequestType.ST.hit_latency_hist_seqr::samples     18018221                       (Unspecified)
system.ruby.RequestType.ST.hit_latency_hist_seqr::mean            1                       (Unspecified)
system.ruby.RequestType.ST.hit_latency_hist_seqr::gmean            1                       (Unspecified)
system.ruby.RequestType.ST.hit_latency_hist_seqr |           0      0.00%      0.00% |    18018221    100.00%    100.00% |           0      0.00%    100.00% |           0      0.00%    100.00% |           0      0.00%    100.00% |           0      0.00%    100.00% |           0      0.00%    100.00% |           0      0.00%    100.00% |           0      0.00%    100.00% |           0      0.00%    100.00% (Unspecified)
system.ruby.RequestType.ST.hit_latency_hist_seqr::total     18018221                       (Unspecified)
system.ruby.clk_domain.clock                      250                       # Clock period in ticks (Tick)
system.ruby.dir_cntrl0.power_state.pwrStateResidencyTicks::UNDEFINED   2147483750                       # Cumulative time (in ticks) in various power states (Tick)
system.ruby.dir_cntrl0.requestToDir.m_msg_count       112001                       # Number of messages passed the buffer (Count)
system.ruby.dir_cntrl0.requestToDir.m_buf_msgs     0.013039                       # Average number of messages in buffer ((Count/Tick))
system.ruby.dir_cntrl0.responseToDir.m_msg_count        57343                       # Number of messages passed the buffer (Count)
system.ruby.dir_cntrl0.responseToDir.m_buf_msgs     0.006676                       # Average number of messages in buffer ((Count/Tick))
system.ruby.dir_cntrl1.power_state.pwrStateResidencyTicks::UNDEFINED   2147483750                       # Cumulative time (in ticks) in various power states (Tick)
system.ruby.dir_cntrl1.requestToDir.m_msg_count       112431                       # Number of messages passed the buffer (Count)
system.ruby.dir_cntrl1.requestToDir.m_buf_msgs     0.013089                       # Average number of messages in buffer ((Count/Tick))
system.ruby.dir_cntrl1.responseToDir.m_msg_count        56639                       # Number of messages passed the buffer (Count)
system.ruby.dir_cntrl1.responseToDir.m_buf_msgs     0.006594                       # Average number of messages in buffer ((Count/Tick))
system.ruby.dir_cntrl10.power_state.pwrStateResidencyTicks::UNDEFINED   2147483750                       # Cumulative time (in ticks) in various power states (Tick)
system.ruby.dir_cntrl10.requestToDir.m_msg_count       112471                       # Number of messages passed the buffer (Count)
system.ruby.dir_cntrl10.requestToDir.m_buf_msgs     0.013093                       # Average number of messages in buffer ((Count/Tick))
system.ruby.dir_cntrl10.responseToDir.m_msg_count        57116                       # Number of messages passed the buffer (Count)
system.ruby.dir_cntrl10.responseToDir.m_buf_msgs     0.006649                       # Average number of messages in buffer ((Count/Tick))
system.ruby.dir_cntrl100.power_state.pwrStateResidencyTicks::UNDEFINED   2147483750                       # Cumulative time (in ticks) in various power states (Tick)
system.ruby.dir_cntrl100.requestToDir.m_msg_count       113248                       # Number of messages passed the buffer (Count)
system.ruby.dir_cntrl100.requestToDir.m_buf_msgs     0.013184                       # Average number of messages in buffer ((Count/Tick))
system.ruby.dir_cntrl100.responseToDir.m_msg_count        57538                       # Number of messages passed the buffer (Count)
system.ruby.dir_cntrl100.responseToDir.m_buf_msgs     0.006698                       # Average number of messages in buffer ((Count/Tick))
system.ruby.dir_cntrl101.power_state.pwrStateResidencyTicks::UNDEFINED   2147483750                       # Cumulative time (in ticks) in various power states (Tick)
system.ruby.dir_cntrl101.requestToDir.m_msg_count       112312                       # Number of messages passed the buffer (Count)
system.ruby.dir_cntrl101.requestToDir.m_buf_msgs     0.013075                       # Average number of messages in buffer ((Count/Tick))
system.ruby.dir_cntrl101.responseToDir.m_msg_count        56945                       # Number of messages passed the buffer (Count)
system.ruby.dir_cntrl101.responseToDir.m_buf_msgs     0.006629                       # Average number of messages in buffer ((Count/Tick))
system.ruby.dir_cntrl102.power_state.pwrStateResidencyTicks::UNDEFINED   2147483750                       # Cumulative time (in ticks) in various power states (Tick)
system.ruby.dir_cntrl102.requestToDir.m_msg_count       112650                       # Number of messages passed the buffer (Count)
system.ruby.dir_cntrl102.requestToDir.m_buf_msgs     0.013114                       # Average number of messages in buffer ((Count/Tick))
system.ruby.dir_cntrl102.responseToDir.m_msg_count        57249                       # Number of messages passed the buffer (Count)
system.ruby.dir_cntrl102.responseToDir.m_buf_msgs     0.006665                       # Average number of messages in buffer ((Count/Tick))
system.ruby.dir_cntrl103.power_state.pwrStateResidencyTicks::UNDEFINED   2147483750                       # Cumulative time (in ticks) in various power states (Tick)
system.ruby.dir_cntrl103.requestToDir.m_msg_count       112351                       # Number of messages passed the buffer (Count)
system.ruby.dir_cntrl103.requestToDir.m_buf_msgs     0.013079                       # Average number of messages in buffer ((Count/Tick))
system.ruby.dir_cntrl103.responseToDir.m_msg_count        56913                       # Number of messages passed the buffer (Count)
system.ruby.dir_cntrl103.responseToDir.m_buf_msgs     0.006626                       # Average number of messages in buffer ((Count/Tick))
system.ruby.dir_cntrl104.power_state.pwrStateResidencyTicks::UNDEFINED   2147483750                       # Cumulative time (in ticks) in various power states (Tick)
system.ruby.dir_cntrl104.requestToDir.m_msg_count       112359                       # Number of messages passed the buffer (Count)
system.ruby.dir_cntrl104.requestToDir.m_buf_msgs     0.013080                       # Average number of messages in buffer ((Count/Tick))
system.ruby.dir_cntrl104.responseToDir.m_msg_count        56861                       # Number of messages passed the buffer (Count)
system.ruby.dir_cntrl104.responseToDir.m_buf_msgs     0.006619                       # Average number of messages in buffer ((Count/Tick))
system.ruby.dir_cntrl105.power_state.pwrStateResidencyTicks::UNDEFINED   2147483750                       # Cumulative time (in ticks) in various power states (Tick)
system.ruby.dir_cntrl105.requestToDir.m_msg_count       112408                       # Number of messages passed the buffer (Count)
system.ruby.dir_cntrl105.requestToDir.m_buf_msgs     0.013086                       # Average number of messages in buffer ((Count/Tick))
system.ruby.dir_cntrl105.responseToDir.m_msg_count        57441                       # Number of messages passed the buffer (Count)
system.ruby.dir_cntrl105.responseToDir.m_buf_msgs     0.006687                       # Average number of messages in buffer ((Count/Tick))
system.ruby.dir_cntrl106.power_state.pwrStateResidencyTicks::UNDEFINED   2147483750                       # Cumulative time (in ticks) in various power states (Tick)
system.ruby.dir_cntrl106.requestToDir.m_msg_count       112849                       # Number of messages passed the buffer (Count)
system.ruby.dir_cntrl106.requestToDir.m_buf_msgs     0.013137                       # Average number of messages in buffer ((Count/Tick))
system.ruby.dir_cntrl106.responseToDir.m_msg_count        56866                       # Number of messages passed the buffer (Count)
system.ruby.dir_cntrl106.responseToDir.m_buf_msgs     0.006620                       # Average number of messages in buffer ((Count/Tick))
system.ruby.dir_cntrl107.power_state.pwrStateResidencyTicks::UNDEFINED   2147483750                       # Cumulative time (in ticks) in various power states (Tick)
system.ruby.dir_cntrl107.requestToDir.m_msg_count       112728                       # Number of messages passed the buffer (Count)
system.ruby.dir_cntrl107.requestToDir.m_buf_msgs     0.013123                       # Average number of messages in buffer ((Count/Tick))
system.ruby.dir_cntrl107.responseToDir.m_msg_count        56832                       # Number of messages passed the buffer (Count)
system.ruby.dir_cntrl107.responseToDir.m_buf_msgs     0.006616                       # Average number of messages in buffer ((Count/Tick))
system.ruby.dir_cntrl108.power_state.pwrStateResidencyTicks::UNDEFINED   2147483750                       # Cumulative time (in ticks) in various power states (Tick)
system.ruby.dir_cntrl108.requestToDir.m_msg_count       112363                       # Number of messages passed the buffer (Count)
system.ruby.dir_cntrl108.requestToDir.m_buf_msgs     0.013081                       # Average number of messages in buffer ((Count/Tick))
system.ruby.dir_cntrl108.responseToDir.m_msg_count        56628                       # Number of messages passed the buffer (Count)
system.ruby.dir_cntrl108.responseToDir.m_buf_msgs     0.006592                       # Average number of messages in buffer ((Count/Tick))
system.ruby.dir_cntrl109.power_state.pwrStateResidencyTicks::UNDEFINED   2147483750                       # Cumulative time (in ticks) in various power states (Tick)
system.ruby.dir_cntrl109.requestToDir.m_msg_count       112448                       # Number of messages passed the buffer (Count)
system.ruby.dir_cntrl109.requestToDir.m_buf_msgs     0.013091                       # Average number of messages in buffer ((Count/Tick))
system.ruby.dir_cntrl109.responseToDir.m_msg_count        56793                       # Number of messages passed the buffer (Count)
system.ruby.dir_cntrl109.responseToDir.m_buf_msgs     0.006612                       # Average number of messages in buffer ((Count/Tick))
system.ruby.dir_cntrl11.power_state.pwrStateResidencyTicks::UNDEFINED   2147483750                       # Cumulative time (in ticks) in various power states (Tick)
system.ruby.dir_cntrl11.requestToDir.m_msg_count       112516                       # Number of messages passed the buffer (Count)
system.ruby.dir_cntrl11.requestToDir.m_buf_msgs     0.013099                       # Average number of messages in buffer ((Count/Tick))
system.ruby.dir_cntrl11.responseToDir.m_msg_count        57420                       # Number of messages passed the buffer (Count)
[...]
system.ruby.network.sankey.vcvn13.vcvn5             0                       (Unspecified)
system.ruby.network.sankey.vcvn13.vcvn6             0                       (Unspecified)
system.ruby.network.sankey.vcvn13.vcvn7             0                       (Unspecified)
system.ruby.network.sankey.vcvn13.vcvn8             0                       (Unspecified)
system.ruby.network.sankey.vcvn13.vcvn9             0                       (Unspecified)
system.ruby.network.sankey.vcvn14.vcvn0             0                       (Unspecified)
system.ruby.network.sankey.vcvn14.vcvn1             0                       (Unspecified)
system.ruby.network.sankey.vcvn14.vcvn10            0                       (Unspecified)
system.ruby.network.sankey.vcvn14.vcvn11            0                       (Unspecified)
system.ruby.network.sankey.vcvn14.vcvn12      4891633                       (Unspecified)
system.ruby.network.sankey.vcvn14.vcvn13       695208                       (Unspecified)
system.ruby.network.sankey.vcvn14.vcvn14        54200                       (Unspecified)
system.ruby.network.sankey.vcvn14.vcvn15         2775                       (Unspecified)
system.ruby.network.sankey.vcvn14.vcvn16      1227952                       (Unspecified)
system.ruby.network.sankey.vcvn14.vcvn17       843211                       (Unspecified)
system.ruby.network.sankey.vcvn14.vcvn2             0                       (Unspecified)
system.ruby.network.sankey.vcvn14.vcvn3             0                       (Unspecified)
system.ruby.network.sankey.vcvn14.vcvn4             0                       (Unspecified)
system.ruby.network.sankey.vcvn14.vcvn5             0                       (Unspecified)
system.ruby.network.sankey.vcvn14.vcvn6             0                       (Unspecified)
system.ruby.network.sankey.vcvn14.vcvn7             0                       (Unspecified)
system.ruby.network.sankey.vcvn14.vcvn8             0                       (Unspecified)
system.ruby.network.sankey.vcvn14.vcvn9             0                       (Unspecified)
system.ruby.network.sankey.vcvn15.vcvn0             0                       (Unspecified)
system.ruby.network.sankey.vcvn15.vcvn1             0                       (Unspecified)
system.ruby.network.sankey.vcvn15.vcvn10            0                       (Unspecified)
system.ruby.network.sankey.vcvn15.vcvn11            0                       (Unspecified)
system.ruby.network.sankey.vcvn15.vcvn12      3841543                       (Unspecified)
system.ruby.network.sankey.vcvn15.vcvn13       549772                       (Unspecified)
system.ruby.network.sankey.vcvn15.vcvn14        41640                       (Unspecified)
system.ruby.network.sankey.vcvn15.vcvn15         2120                       (Unspecified)
system.ruby.network.sankey.vcvn15.vcvn16      1059050                       (Unspecified)
system.ruby.network.sankey.vcvn15.vcvn17       673690                       (Unspecified)
system.ruby.network.sankey.vcvn15.vcvn2             0                       (Unspecified)
system.ruby.network.sankey.vcvn15.vcvn3             0                       (Unspecified)
system.ruby.network.sankey.vcvn15.vcvn4             0                       (Unspecified)
system.ruby.network.sankey.vcvn15.vcvn5             0                       (Unspecified)
system.ruby.network.sankey.vcvn15.vcvn6             0                       (Unspecified)
system.ruby.network.sankey.vcvn15.vcvn7             0                       (Unspecified)
system.ruby.network.sankey.vcvn15.vcvn8             0                       (Unspecified)
system.ruby.network.sankey.vcvn15.vcvn9             0                       (Unspecified)
system.ruby.network.sankey.vcvn16.vcvn0             0                       (Unspecified)
system.ruby.network.sankey.vcvn16.vcvn1             0                       (Unspecified)
system.ruby.network.sankey.vcvn16.vcvn10            0                       (Unspecified)
system.ruby.network.sankey.vcvn16.vcvn11            0                       (Unspecified)
system.ruby.network.sankey.vcvn16.vcvn12            0                       (Unspecified)
system.ruby.network.sankey.vcvn16.vcvn13            0                       (Unspecified)
system.ruby.network.sankey.vcvn16.vcvn14            0                       (Unspecified)
system.ruby.network.sankey.vcvn16.vcvn15            0                       (Unspecified)
system.ruby.network.sankey.vcvn16.vcvn16      2636339                       (Unspecified)
system.ruby.network.sankey.vcvn16.vcvn17            0                       (Unspecified)
system.ruby.network.sankey.vcvn16.vcvn2             0                       (Unspecified)
system.ruby.network.sankey.vcvn16.vcvn3             0                       (Unspecified)
system.ruby.network.sankey.vcvn16.vcvn4             0                       (Unspecified)
system.ruby.network.sankey.vcvn16.vcvn5             0                       (Unspecified)
system.ruby.network.sankey.vcvn16.vcvn6             0                       (Unspecified)
system.ruby.network.sankey.vcvn16.vcvn7             0                       (Unspecified)
system.ruby.network.sankey.vcvn16.vcvn8             0                       (Unspecified)
system.ruby.network.sankey.vcvn16.vcvn9             0                       (Unspecified)
system.ruby.network.sankey.vcvn17.vcvn0             0                       (Unspecified)
system.ruby.network.sankey.vcvn17.vcvn1             0                       (Unspecified)
system.ruby.network.sankey.vcvn17.vcvn10            0                       (Unspecified)
system.ruby.network.sankey.vcvn17.vcvn11            0                       (Unspecified)
system.ruby.network.sankey.vcvn17.vcvn12            0                       (Unspecified)
system.ruby.network.sankey.vcvn17.vcvn13            0                       (Unspecified)
system.ruby.network.sankey.vcvn17.vcvn14            0                       (Unspecified)
system.ruby.network.sankey.vcvn17.vcvn15            0                       (Unspecified)
system.ruby.network.sankey.vcvn17.vcvn16            0                       (Unspecified)
system.ruby.network.sankey.vcvn17.vcvn17      1967638                       (Unspecified)
system.ruby.network.sankey.vcvn17.vcvn2             0                       (Unspecified)
system.ruby.network.sankey.vcvn17.vcvn3             0                       (Unspecified)
system.ruby.network.sankey.vcvn17.vcvn4             0                       (Unspecified)
system.ruby.network.sankey.vcvn17.vcvn5             0                       (Unspecified)
system.ruby.network.sankey.vcvn17.vcvn6             0                       (Unspecified)
system.ruby.network.sankey.vcvn17.vcvn7             0                       (Unspecified)
system.ruby.network.sankey.vcvn17.vcvn8             0                       (Unspecified)
system.ruby.network.sankey.vcvn17.vcvn9             0                       (Unspecified)
system.ruby.network.sankey.vcvn2.vcvn0        3206172                       (Unspecified)
system.ruby.network.sankey.vcvn2.vcvn1         208950                       (Unspecified)
system.ruby.network.sankey.vcvn2.vcvn10             0                       (Unspecified)
system.ruby.network.sankey.vcvn2.vcvn11             0                       (Unspecified)
system.ruby.network.sankey.vcvn2.vcvn12             0                       (Unspecified)
system.ruby.network.sankey.vcvn2.vcvn13             0                       (Unspecified)
system.ruby.network.sankey.vcvn2.vcvn14             0                       (Unspecified)
system.ruby.network.sankey.vcvn2.vcvn15             0                       (Unspecified)
system.ruby.network.sankey.vcvn2.vcvn16             0                       (Unspecified)
system.ruby.network.sankey.vcvn2.vcvn17             0                       (Unspecified)
system.ruby.network.sankey.vcvn2.vcvn2           6493                       (Unspecified)
system.ruby.network.sankey.vcvn2.vcvn3            143                       (Unspecified)
system.ruby.network.sankey.vcvn2.vcvn4           4642                       (Unspecified)
system.ruby.network.sankey.vcvn2.vcvn5           8959                       (Unspecified)
system.ruby.network.sankey.vcvn2.vcvn6              0                       (Unspecified)
system.ruby.network.sankey.vcvn2.vcvn7              0                       (Unspecified)
system.ruby.network.sankey.vcvn2.vcvn8              0                       (Unspecified)
system.ruby.network.sankey.vcvn2.vcvn9              0                       (Unspecified)
system.ruby.network.sankey.vcvn3.vcvn0        3206646                       (Unspecified)
system.ruby.network.sankey.vcvn3.vcvn1         207971                       (Unspecified)
system.ruby.network.sankey.vcvn3.vcvn10             0                       (Unspecified)
system.ruby.network.sankey.vcvn3.vcvn11             0                       (Unspecified)
system.ruby.network.sankey.vcvn3.vcvn12             0                       (Unspecified)
system.ruby.network.sankey.vcvn3.vcvn13             0                       (Unspecified)
system.ruby.network.sankey.vcvn3.vcvn14             0                       (Unspecified)
system.ruby.network.sankey.vcvn3.vcvn15             0                       (Unspecified)
system.ruby.network.sankey.vcvn3.vcvn16             0                       (Unspecified)
system.ruby.network.sankey.vcvn3.vcvn17             0                       (Unspecified)
system.ruby.network.sankey.vcvn3.vcvn2           6455                       (Unspecified)
system.ruby.network.sankey.vcvn3.vcvn3            121                       (Unspecified)
system.ruby.network.sankey.vcvn3.vcvn4           4728                       (Unspecified)
system.ruby.network.sankey.vcvn3.vcvn5           9222                       (Unspecified)
system.ruby.network.sankey.vcvn3.vcvn6              0                       (Unspecified)
system.ruby.network.sankey.vcvn3.vcvn7              0                       (Unspecified)
system.ruby.network.sankey.vcvn3.vcvn8              0                       (Unspecified)
system.ruby.network.sankey.vcvn3.vcvn9              0                       (Unspecified)
system.ruby.network.sankey.vcvn4.vcvn0              0                       (Unspecified)
system.ruby.network.sankey.vcvn4.vcvn1              0                       (Unspecified)
system.ruby.network.sankey.vcvn4.vcvn10             0                       (Unspecified)
system.ruby.network.sankey.vcvn4.vcvn11             0                       (Unspecified)
system.ruby.network.sankey.vcvn4.vcvn12             0                       (Unspecified)
system.ruby.network.sankey.vcvn4.vcvn13             0                       (Unspecified)
system.ruby.network.sankey.vcvn4.vcvn14             0                       (Unspecified)
system.ruby.network.sankey.vcvn4.vcvn15             0                       (Unspecified)
system.ruby.network.sankey.vcvn4.vcvn16             0                       (Unspecified)
system.ruby.network.sankey.vcvn4.vcvn17             0                       (Unspecified)
system.ruby.network.sankey.vcvn4.vcvn2              0                       (Unspecified)
system.ruby.network.sankey.vcvn4.vcvn3              0                       (Unspecified)
system.ruby.network.sankey.vcvn4.vcvn4         942280                       (Unspecified)
system.ruby.network.sankey.vcvn4.vcvn5              0                       (Unspecified)
system.ruby.network.sankey.vcvn4.vcvn6              0                       (Unspecified)
system.ruby.network.sankey.vcvn4.vcvn7              0                       (Unspecified)
system.ruby.network.sankey.vcvn4.vcvn8              0                       (Unspecified)
system.ruby.network.sankey.vcvn4.vcvn9              0                       (Unspecified)
system.ruby.network.sankey.vcvn5.vcvn0              0                       (Unspecified)
system.ruby.network.sankey.vcvn5.vcvn1              0                       (Unspecified)
system.ruby.network.sankey.vcvn5.vcvn10             0                       (Unspecified)
system.ruby.network.sankey.vcvn5.vcvn11             0                       (Unspecified)
system.ruby.network.sankey.vcvn5.vcvn12             0                       (Unspecified)
system.ruby.network.sankey.vcvn5.vcvn13             0                       (Unspecified)
system.ruby.network.sankey.vcvn5.vcvn14             0                       (Unspecified)
system.ruby.network.sankey.vcvn5.vcvn15             0                       (Unspecified)
system.ruby.network.sankey.vcvn5.vcvn16             0                       (Unspecified)
system.ruby.network.sankey.vcvn5.vcvn17             0                       (Unspecified)
system.ruby.network.sankey.vcvn5.vcvn2              0                       (Unspecified)
system.ruby.network.sankey.vcvn5.vcvn3              0                       (Unspecified)
system.ruby.network.sankey.vcvn5.vcvn4              0                       (Unspecified)
system.ruby.network.sankey.vcvn5.vcvn5        3335033                       (Unspecified)
system.ruby.network.sankey.vcvn5.vcvn6              0                       (Unspecified)
system.ruby.network.sankey.vcvn5.vcvn7              0                       (Unspecified)
system.ruby.network.sankey.vcvn5.vcvn8              0                       (Unspecified)
system.ruby.network.sankey.vcvn5.vcvn9              0                       (Unspecified)
system.ruby.network.sankey.vcvn6.vcvn0              0                       (Unspecified)
system.ruby.network.sankey.vcvn6.vcvn1              0                       (Unspecified)
system.ruby.network.sankey.vcvn6.vcvn10             0                       (Unspecified)
system.ruby.network.sankey.vcvn6.vcvn11             0                       (Unspecified)
system.ruby.network.sankey.vcvn6.vcvn12             0                       (Unspecified)
system.ruby.network.sankey.vcvn6.vcvn13             0                       (Unspecified)
system.ruby.network.sankey.vcvn6.vcvn14             0                       (Unspecified)
system.ruby.network.sankey.vcvn6.vcvn15             0                       (Unspecified)
system.ruby.network.sankey.vcvn6.vcvn16             0                       (Unspecified)
system.ruby.network.sankey.vcvn6.vcvn17             0                       (Unspecified)
system.ruby.network.sankey.vcvn6.vcvn2              0                       (Unspecified)
system.ruby.network.sankey.vcvn6.vcvn3              0                       (Unspecified)
system.ruby.network.sankey.vcvn6.vcvn4              0                       (Unspecified)
system.ruby.network.sankey.vcvn6.vcvn5              0                       (Unspecified)
system.ruby.network.sankey.vcvn6.vcvn6              0                       (Unspecified)
system.ruby.network.sankey.vcvn6.vcvn7              0                       (Unspecified)
system.ruby.network.sankey.vcvn6.vcvn8              0                       (Unspecified)
system.ruby.network.sankey.vcvn6.vcvn9              0                       (Unspecified)
system.ruby.network.sankey.vcvn7.vcvn0              0                       (Unspecified)
system.ruby.network.sankey.vcvn7.vcvn1              0                       (Unspecified)
system.ruby.network.sankey.vcvn7.vcvn10             0                       (Unspecified)
system.ruby.network.sankey.vcvn7.vcvn11             0                       (Unspecified)
system.ruby.network.sankey.vcvn7.vcvn12             0                       (Unspecified)
system.ruby.network.sankey.vcvn7.vcvn13             0                       (Unspecified)
system.ruby.network.sankey.vcvn7.vcvn14             0                       (Unspecified)
system.ruby.network.sankey.vcvn7.vcvn15             0                       (Unspecified)
system.ruby.network.sankey.vcvn7.vcvn16             0                       (Unspecified)
system.ruby.network.sankey.vcvn7.vcvn17             0                       (Unspecified)
system.ruby.network.sankey.vcvn7.vcvn2              0                       (Unspecified)
system.ruby.network.sankey.vcvn7.vcvn3              0                       (Unspecified)
system.ruby.network.sankey.vcvn7.vcvn4              0                       (Unspecified)
system.ruby.network.sankey.vcvn7.vcvn5              0                       (Unspecified)
system.ruby.network.sankey.vcvn7.vcvn6              0                       (Unspecified)
system.ruby.network.sankey.vcvn7.vcvn7              0                       (Unspecified)
system.ruby.network.sankey.vcvn7.vcvn8              0                       (Unspecified)
system.ruby.network.sankey.vcvn7.vcvn9              0                       (Unspecified)
system.ruby.network.sankey.vcvn8.vcvn0              0                       (Unspecified)
system.ruby.network.sankey.vcvn8.vcvn1              0                       (Unspecified)
system.ruby.network.sankey.vcvn8.vcvn10             0                       (Unspecified)
system.ruby.network.sankey.vcvn8.vcvn11             0                       (Unspecified)
system.ruby.network.sankey.vcvn8.vcvn12             0                       (Unspecified)
system.ruby.network.sankey.vcvn8.vcvn13             0                       (Unspecified)
system.ruby.network.sankey.vcvn8.vcvn14             0                       (Unspecified)
system.ruby.network.sankey.vcvn8.vcvn15             0                       (Unspecified)
system.ruby.network.sankey.vcvn8.vcvn16             0                       (Unspecified)
system.ruby.network.sankey.vcvn8.vcvn17             0                       (Unspecified)
system.ruby.network.sankey.vcvn8.vcvn2              0                       (Unspecified)
system.ruby.network.sankey.vcvn8.vcvn3              0                       (Unspecified)
system.ruby.network.sankey.vcvn8.vcvn4              0                       (Unspecified)
system.ruby.network.sankey.vcvn8.vcvn5              0                       (Unspecified)
system.ruby.network.sankey.vcvn8.vcvn6              0                       (Unspecified)
system.ruby.network.sankey.vcvn8.vcvn7              0                       (Unspecified)
system.ruby.network.sankey.vcvn8.vcvn8              0                       (Unspecified)
system.ruby.network.sankey.vcvn8.vcvn9              0                       (Unspecified)
system.ruby.network.sankey.vcvn9.vcvn0              0                       (Unspecified)
system.ruby.network.sankey.vcvn9.vcvn1              0                       (Unspecified)
system.ruby.network.sankey.vcvn9.vcvn10             0                       (Unspecified)
system.ruby.network.sankey.vcvn9.vcvn11             0                       (Unspecified)
system.ruby.network.sankey.vcvn9.vcvn12             0                       (Unspecified)
system.ruby.network.sankey.vcvn9.vcvn13             0                       (Unspecified)
system.ruby.network.sankey.vcvn9.vcvn14             0                       (Unspecified)
system.ruby.network.sankey.vcvn9.vcvn15             0                       (Unspecified)
system.ruby.network.sankey.vcvn9.vcvn16             0                       (Unspecified)
system.ruby.network.sankey.vcvn9.vcvn17             0                       (Unspecified)
system.ruby.network.sankey.vcvn9.vcvn2              0                       (Unspecified)
system.ruby.network.sankey.vcvn9.vcvn3              0                       (Unspecified)
system.ruby.network.sankey.vcvn9.vcvn4              0                       (Unspecified)
system.ruby.network.sankey.vcvn9.vcvn5              0                       (Unspecified)
system.ruby.network.sankey.vcvn9.vcvn6              0                       (Unspecified)
system.ruby.network.sankey.vcvn9.vcvn7              0                       (Unspecified)
system.ruby.network.sankey.vcvn9.vcvn8              0                       (Unspecified)
system.ruby.network.sankey.vcvn9.vcvn9              0                       (Unspecified)

---------- End Simulation Statistics   ----------
