
---------- Begin Simulation Statistics ----------
simSeconds                                   0.002147                       # Number of seconds simulated (Second)
simTicks                                   2147483750                       # Number of ticks simulated (Tick)
finalTick                                  2147483750                       # Number of ticks from beginning of simulation (restored from checkpoints and never reset) (Tick)
simFreq                                  1000000000000                       # The number of ticks per simulated second ((Tick/Second))
hostSeconds                                   6574.06                       # Real time elapsed on the host (Second)
hostTickRate                                   326660                       # The number of ticks simulated per host second (ticks/s) ((Tick/Second))
hostMemory                                    9757216                       # Number of bytes of host memory used (Byte)
system.clk_domain.clock                           250                       # Clock period in ticks (Tick)
system.cpu0.power_state.pwrStateResidencyTicks::UNDEFINED   2147483750                       # Cumulative time (in ticks) in various power states (Tick)
system.cpu1.power_state.pwrStateResidencyTicks::UNDEFINED   2147483750                       # Cumulative time (in ticks) in various power states (Tick)
system.cpu10.power_state.pwrStateResidencyTicks::UNDEFINED   2147483750                       # Cumulative time (in ticks) in various power states (Tick)
system.cpu11.power_state.pwrStateResidencyTicks::UNDEFINED   2147483750                       # Cumulative time (in ticks) in various power states (Tick)
system.cpu12.power_state.pwrStateResidencyTicks::UNDEFINED   2147483750                       # Cumulative time (in ticks) in various power states (Tick)
system.cpu13.power_state.pwrStateResidencyTicks::UNDEFINED   2147483750                       # Cumulative time (in ticks) in various power states (Tick)
system.cpu14.power_state.pwrStateResidencyTicks::UNDEFINED   2147483750                       # Cumulative time (in ticks) in various power states (Tick)
system.cpu15.power_state.pwrStateResidencyTicks::UNDEFINED   2147483750                       # Cumulative time (in ticks) in various power states (Tick)
system.cpu16.power_state.pwrStateResidencyTicks::UNDEFINED   2147483750                       # Cumulative time (in ticks) in various power states (Tick)
system.cpu17.power_state.pwrStateResidencyTicks::UNDEFINED   2147483750                       # Cumulative time (in ticks) in various power states (Tick)
system.cpu18.power_state.pwrStateResidencyTicks::UNDEFINED   2147483750                       # Cumulative time (in ticks) in various power states (Tick)
system.cpu19.power_state.pwrStateResidencyTicks::UNDEFINED   2147483750                       # Cumulative time (in ticks) in various power states (Tick)
system.cpu2.power_state.pwrStateResidencyTicks::UNDEFINED   2147483750                       # Cumulative time (in ticks) in various power states (Tick)
system.cpu20.power_state.pwrStateResidencyTicks::UNDEFINED   2147483750                       # Cumulative time (in ticks) in various power states (Tick)
system.cpu21.power_state.pwrStateResidencyTicks::UNDEFINED   2147483750                       # Cumulative time (in ticks) in various power states (Tick)
system.cpu22.power_state.pwrStateResidencyTicks::UNDEFINED   2147483750                       # Cumulative time (in ticks) in various power states (Tick)
system.cpu23.power_state.pwrStateResidencyTicks::UNDEFINED   2147483750                       # Cumulative time (in ticks) in various power states (Tick)
system.cpu24.power_state.pwrStateResidencyTicks::UNDEFINED   2147483750                       # Cumulative time (in ticks) in various power states (Tick)
system.cpu25.power_state.pwrStateResidencyTicks::UNDEFINED   2147483750                       # Cumulative time (in ticks) in various power states (Tick)
system.cpu26.power_state.pwrStateResidencyTicks::UNDEFINED   2147483750                       # Cumulative time (in ticks) in various power states (Tick)
system.cpu27.power_state.pwrStateResidencyTicks::UNDEFINED   2147483750                       # Cumulative time (in ticks) in various power states (Tick)
system.cpu28.power_state.pwrStateResidencyTicks::UNDEFINED   2147483750                       # Cumulative time (in ticks) in various power states (Tick)
system.cpu29.power_state.pwrStateResidencyTicks::UNDEFINED   2147483750                       # Cumulative time (in ticks) in various power states (Tick)
system.cpu3.power_state.pwrStateResidencyTicks::UNDEFINED   2147483750                       # Cumulative time (in ticks) in various power states (Tick)
system.cpu30.power_state.pwrStateResidencyTicks::UNDEFINED   2147483750                       # Cumulative time (in ticks) in various power states (Tick)
system.cpu31.power_state.pwrStateResidencyTicks::UNDEFINED   2147483750                       # Cumulative time (in ticks) in various power states (Tick)
system.cpu32.power_state.pwrStateResidencyTicks::UNDEFINED   2147483750                       # Cumulative time (in ticks) in various power states (Tick)
system.cpu33.power_state.pwrStateResidencyTicks::UNDEFINED   2147483750                       # Cumulative time (in ticks) in various power states (Tick)
system.cpu34.power_state.pwrStateResidencyTicks::UNDEFINED   2147483750                       # Cumulative time (in ticks) in various power states (Tick)
system.cpu35.power_state.pwrStateResidencyTicks::UNDEFINED   2147483750                       # Cumulative time (in ticks) in various power states (Tick)
system.cpu36.power_state.pwrStateResidencyTicks::UNDEFINED   2147483750                       # Cumulative time (in ticks) in various power states (Tick)
system.cpu37.power_state.pwrStateResidencyTicks::UNDEFINED   2147483750                       # Cumulative time (in ticks) in various power states (Tick)
system.cpu38.power_state.pwrStateResidencyTicks::UNDEFINED   2147483750                       # Cumulative time (in ticks) in various power states (Tick)
system.cpu39.power_state.pwrStateResidencyTicks::UNDEFINED   2147483750                       # Cumulative time (in ticks) in various power states (Tick)
system.cpu4.power_state.pwrStateResidencyTicks::UNDEFINED   2147483750                       # Cumulative time (in ticks) in various power states (Tick)
system.cpu5.power_state.pwrStateResidencyTicks::UNDEFINED   2147483750                       # Cumulative time (in ticks) in various power states (Tick)
system.cpu6.power_state.pwrStateResidencyTicks::UNDEFINED   2147483750                       # Cumulative time (in ticks) in various power states (Tick)
system.cpu7.power_state.pwrStateResidencyTicks::UNDEFINED   2147483750                       # Cumulative time (in ticks) in various power states (Tick)
system.cpu8.power_state.pwrStateResidencyTicks::UNDEFINED   2147483750                       # Cumulative time (in ticks) in various power states (Tick)
system.cpu9.power_state.pwrStateResidencyTicks::UNDEFINED   2147483750                       # Cumulative time (in ticks) in various power states (Tick)
system.mem_ctrls0.power_state.pwrStateResidencyTicks::UNDEFINED   2147483750                       # Cumulative time (in ticks) in various power states (Tick)
system.mem_ctrls1.power_state.pwrStateResidencyTicks::UNDEFINED   2147483750                       # Cumulative time (in ticks) in various power states (Tick)
system.mem_ctrls10.power_state.pwrStateResidencyTicks::UNDEFINED   2147483750                       # Cumulative time (in ticks) in various power states (Tick)
system.mem_ctrls100.power_state.pwrStateResidencyTicks::UNDEFINED   2147483750                       # Cumulative time (in ticks) in various power states (Tick)
system.mem_ctrls101.power_state.pwrStateResidencyTicks::UNDEFINED   2147483750                       # Cumulative time (in ticks) in various power states (Tick)
system.mem_ctrls102.power_state.pwrStateResidencyTicks::UNDEFINED   2147483750                       # Cumulative time (in ticks) in various power states (Tick)
system.mem_ctrls103.power_state.pwrStateResidencyTicks::UNDEFINED   2147483750                       # Cumulative time (in ticks) in various power states (Tick)
system.mem_ctrls104.power_state.pwrStateResidencyTicks::UNDEFINED   2147483750                       # Cumulative time (in ticks) in various power states (Tick)
system.mem_ctrls105.power_state.pwrStateResidencyTicks::UNDEFINED   2147483750                       # Cumulative time (in ticks) in various power states (Tick)
system.mem_ctrls106.power_state.pwrStateResidencyTicks::UNDEFINED   2147483750                       # Cumulative time (in ticks) in various power states (Tick)
system.mem_ctrls107.power_state.pwrStateResidencyTicks::UNDEFINED   2147483750                       # Cumulative time (in ticks) in various power states (Tick)
system.mem_ctrls108.power_state.pwrStateResidencyTicks::UNDEFINED   2147483750                       # Cumulative time (in ticks) in various power states (Tick)
system.mem_ctrls109.power_state.pwrStateResidencyTicks::UNDEFINED   2147483750                       # Cumulative time (in ticks) in various power states (Tick)
system.mem_ctrls11.power_state.pwrStateResidencyTicks::UNDEFINED   2147483750                       # Cumulative time (in ticks) in various power states (Tick)
system.mem_ctrls110.power_state.pwrStateResidencyTicks::UNDEFINED   2147483750                       # Cumulative time (in ticks) in various power states (Tick)
system.mem_ctrls111.power_state.pwrStateResidencyTicks::UNDEFINED   2147483750                       # Cumulative time (in ticks) in various power states (Tick)
system.mem_ctrls112.power_state.pwrStateResidencyTicks::UNDEFINED   2147483750                       # Cumulative time (in ticks) in various power states (Tick)
system.mem_ctrls113.power_state.pwrStateResidencyTicks::UNDEFINED   2147483750                       # Cumulative time (in ticks) in various power states (Tick)
system.mem_ctrls114.power_state.pwrStateResidencyTicks::UNDEFINED   2147483750                       # Cumulative time (in ticks) in various power states (Tick)
system.mem_ctrls115.power_state.pwrStateResidencyTicks::UNDEFINED   2147483750                       # Cumulative time (in ticks) in various power states (Tick)
system.mem_ctrls116.power_state.pwrStateResidencyTicks::UNDEFINED   2147483750                       # Cumulative time (in ticks) in various power states (Tick)
system.mem_ctrls117.power_state.pwrStateResidencyTicks::UNDEFINED   2147483750                       # Cumulative time (in ticks) in various power states (Tick)
system.mem_ctrls118.power_state.pwrStateResidencyTicks::UNDEFINED   2147483750                       # Cumulative time (in ticks) in various power states (Tick)
system.mem_ctrls119.power_state.pwrStateResidencyTicks::UNDEFINED   2147483750                       # Cumulative time (in ticks) in various power states (Tick)
system.mem_ctrls12.power_state.pwrStateResidencyTicks::UNDEFINED   2147483750                       # Cumulative time (in ticks) in various power states (Tick)
system.mem_ctrls120.power_state.pwrStateResidencyTicks::UNDEFINED   2147483750                       # Cumulative time (in ticks) in various power states (Tick)
system.mem_ctrls121.power_state.pwrStateResidencyTicks::UNDEFINED   2147483750                       # Cumulative time (in ticks) in various power states (Tick)
system.mem_ctrls122.power_state.pwrStateResidencyTicks::UNDEFINED   2147483750                       # Cumulative time (in ticks) in various power states (Tick)
system.mem_ctrls123.power_state.pwrStateResidencyTicks::UNDEFINED   2147483750                       # Cumulative time (in ticks) in various power states (Tick)
system.mem_ctrls124.power_state.pwrStateResidencyTicks::UNDEFINED   2147483750                       # Cumulative time (in ticks) in various power states (Tick)
system.mem_ctrls125.power_state.pwrStateResidencyTicks::UNDEFINED   2147483750                       # Cumulative time (in ticks) in various power states (Tick)
system.mem_ctrls126.power_state.pwrStateResidencyTicks::UNDEFINED   2147483750                       # Cumulative time (in ticks) in various power states (Tick)
system.mem_ctrls127.power_state.pwrStateResidencyTicks::UNDEFINED   2147483750                       # Cumulative time (in ticks) in various power states (Tick)
system.mem_ctrls128.power_state.pwrStateResidencyTicks::UNDEFINED   2147483750                       # Cumulative time (in ticks) in various power states (Tick)
system.mem_ctrls129.power_state.pwrStateResidencyTicks::UNDEFINED   2147483750                       # Cumulative time (in ticks) in various power states (Tick)
system.mem_ctrls13.power_state.pwrStateResidencyTicks::UNDEFINED   2147483750                       # Cumulative time (in ticks) in various power states (Tick)
system.mem_ctrls130.power_state.pwrStateResidencyTicks::UNDEFINED   2147483750                       # Cumulative time (in ticks) in various power states (Tick)
system.mem_ctrls131.power_state.pwrStateResidencyTicks::UNDEFINED   2147483750                       # Cumulative time (in ticks) in various power states (Tick)
system.mem_ctrls132.power_state.pwrStateResidencyTicks::UNDEFINED   2147483750                       # Cumulative time (in ticks) in various power states (Tick)
system.mem_ctrls133.power_state.pwrStateResidencyTicks::UNDEFINED   2147483750                       # Cumulative time (in ticks) in various power states (Tick)
system.mem_ctrls134.power_state.pwrStateResidencyTicks::UNDEFINED   2147483750                       # Cumulative time (in ticks) in various power states (Tick)
system.mem_ctrls135.power_state.pwrStateResidencyTicks::UNDEFINED   2147483750                       # Cumulative time (in ticks) in various power states (Tick)
system.mem_ctrls136.power_state.pwrStateResidencyTicks::UNDEFINED   2147483750                       # Cumulative time (in ticks) in various power states (Tick)
system.mem_ctrls137.power_state.pwrStateResidencyTicks::UNDEFINED   2147483750                       # Cumulative time (in ticks) in various power states (Tick)
system.mem_ctrls138.power_state.pwrStateResidencyTicks::UNDEFINED   2147483750                       # Cumulative time (in ticks) in various power states (Tick)
system.mem_ctrls139.power_state.pwrStateResidencyTicks::UNDEFINED   2147483750                       # Cumulative time (in ticks) in various power states (Tick)
system.mem_ctrls14.power_state.pwrStateResidencyTicks::UNDEFINED   2147483750                       # Cumulative time (in ticks) in various power states (Tick)
system.mem_ctrls140.power_state.pwrStateResidencyTicks::UNDEFINED   2147483750                       # Cumulative time (in ticks) in various power states (Tick)
system.mem_ctrls141.power_state.pwrStateResidencyTicks::UNDEFINED   2147483750                       # Cumulative time (in ticks) in various power states (Tick)
system.mem_ctrls142.power_state.pwrStateResidencyTicks::UNDEFINED   2147483750                       # Cumulative time (in ticks) in various power states (Tick)
system.mem_ctrls143.power_state.pwrStateResidencyTicks::UNDEFINED   2147483750                       # Cumulative time (in ticks) in various power states (Tick)
system.mem_ctrls144.power_state.pwrStateResidencyTicks::UNDEFINED   2147483750                       # Cumulative time (in ticks) in various power states (Tick)
system.mem_ctrls145.power_state.pwrStateResidencyTicks::UNDEFINED   2147483750                       # Cumulative time (in ticks) in various power states (Tick)
system.mem_ctrls146.power_state.pwrStateResidencyTicks::UNDEFINED   2147483750                       # Cumulative time (in ticks) in various power states (Tick)
system.mem_ctrls147.power_state.pwrStateResidencyTicks::UNDEFINED   2147483750                       # Cumulative time (in ticks) in various power states (Tick)
system.mem_ctrls148.power_state.pwrStateResidencyTicks::UNDEFINED   2147483750                       # Cumulative time (in ticks) in various power states (Tick)
system.mem_ctrls149.power_state.pwrStateResidencyTicks::UNDEFINED   2147483750                       # Cumulative time (in ticks) in various power states (Tick)
system.mem_ctrls15.power_state.pwrStateResidencyTicks::UNDEFINED   2147483750                       # Cumulative time (in ticks) in various power states (Tick)
system.mem_ctrls150.power_state.pwrStateResidencyTicks::UNDEFINED   2147483750                       # Cumulative time (in ticks) in various power states (Tick)
system.mem_ctrls151.power_state.pwrStateResidencyTicks::UNDEFINED   2147483750                       # Cumulative time (in ticks) in various power states (Tick)
system.mem_ctrls152.power_state.pwrStateResidencyTicks::UNDEFINED   2147483750                       # Cumulative time (in ticks) in various power states (Tick)
system.mem_ctrls153.power_state.pwrStateResidencyTicks::UNDEFINED   2147483750                       # Cumulative time (in ticks) in various power states (Tick)
system.mem_ctrls154.power_state.pwrStateResidencyTicks::UNDEFINED   2147483750                       # Cumulative time (in ticks) in various power states (Tick)
system.mem_ctrls155.power_state.pwrStateResidencyTicks::UNDEFINED   2147483750                       # Cumulative time (in ticks) in various power states (Tick)
system.mem_ctrls156.power_state.pwrStateResidencyTicks::UNDEFINED   2147483750                       # Cumulative time (in ticks) in various power states (Tick)
system.mem_ctrls157.power_state.pwrStateResidencyTicks::UNDEFINED   2147483750                       # Cumulative time (in ticks) in various power states (Tick)
system.mem_ctrls158.power_state.pwrStateResidencyTicks::UNDEFINED   2147483750                       # Cumulative time (in ticks) in various power states (Tick)
system.mem_ctrls159.power_state.pwrStateResidencyTicks::UNDEFINED   2147483750                       # Cumulative time (in ticks) in various power states (Tick)
system.mem_ctrls16.power_state.pwrStateResidencyTicks::UNDEFINED   2147483750                       # Cumulative time (in ticks) in various power states (Tick)
system.mem_ctrls17.power_state.pwrStateResidencyTicks::UNDEFINED   2147483750                       # Cumulative time (in ticks) in various power states (Tick)
system.mem_ctrls18.power_state.pwrStateResidencyTicks::UNDEFINED   2147483750                       # Cumulative time (in ticks) in various power states (Tick)
system.mem_ctrls19.power_state.pwrStateResidencyTicks::UNDEFINED   2147483750                       # Cumulative time (in ticks) in various power states (Tick)
system.mem_ctrls2.power_state.pwrStateResidencyTicks::UNDEFINED   2147483750                       # Cumulative time (in ticks) in various power states (Tick)
system.mem_ctrls20.power_state.pwrStateResidencyTicks::UNDEFINED   2147483750                       # Cumulative time (in ticks) in various power states (Tick)
system.mem_ctrls21.power_state.pwrStateResidencyTicks::UNDEFINED   2147483750                       # Cumulative time (in ticks) in various power states (Tick)
system.mem_ctrls22.power_state.pwrStateResidencyTicks::UNDEFINED   2147483750                       # Cumulative time (in ticks) in various power states (Tick)
system.mem_ctrls23.power_state.pwrStateResidencyTicks::UNDEFINED   2147483750                       # Cumulative time (in ticks) in various power states (Tick)
system.mem_ctrls24.power_state.pwrStateResidencyTicks::UNDEFINED   2147483750                       # Cumulative time (in ticks) in various power states (Tick)
system.mem_ctrls25.power_state.pwrStateResidencyTicks::UNDEFINED   2147483750                       # Cumulative time (in ticks) in various power states (Tick)
system.mem_ctrls26.power_state.pwrStateResidencyTicks::UNDEFINED   2147483750                       # Cumulative time (in ticks) in various power states (Tick)
system.mem_ctrls27.power_state.pwrStateResidencyTicks::UNDEFINED   2147483750                       # Cumulative time (in ticks) in various power states (Tick)
system.mem_ctrls28.power_state.pwrStateResidencyTicks::UNDEFINED   2147483750                       # Cumulative time (in ticks) in various power states (Tick)
system.mem_ctrls29.power_state.pwrStateResidencyTicks::UNDEFINED   2147483750                       # Cumulative time (in ticks) in various power states (Tick)
system.mem_ctrls3.power_state.pwrStateResidencyTicks::UNDEFINED   2147483750                       # Cumulative time (in ticks) in various power states (Tick)
system.mem_ctrls30.power_state.pwrStateResidencyTicks::UNDEFINED   2147483750                       # Cumulative time (in ticks) in various power states (Tick)
system.mem_ctrls31.power_state.pwrStateResidencyTicks::UNDEFINED   2147483750                       # Cumulative time (in ticks) in various power states (Tick)
system.mem_ctrls32.power_state.pwrStateResidencyTicks::UNDEFINED   2147483750                       # Cumulative time (in ticks) in various power states (Tick)
system.mem_ctrls33.power_state.pwrStateResidencyTicks::UNDEFINED   2147483750                       # Cumulative time (in ticks) in various power states (Tick)
system.mem_ctrls34.power_state.pwrStateResidencyTicks::UNDEFINED   2147483750                       # Cumulative time (in ticks) in various power states (Tick)
system.mem_ctrls35.power_state.pwrStateResidencyTicks::UNDEFINED   2147483750                       # Cumulative time (in ticks) in various power states (Tick)
system.mem_ctrls36.power_state.pwrStateResidencyTicks::UNDEFINED   2147483750                       # Cumulative time (in ticks) in various power states (Tick)
system.mem_ctrls37.power_state.pwrStateResidencyTicks::UNDEFINED   2147483750                       # Cumulative time (in ticks) in various power states (Tick)
system.mem_ctrls38.power_state.pwrStateResidencyTicks::UNDEFINED   2147483750                       # Cumulative time (in ticks) in various power states (Tick)
system.mem_ctrls39.power_state.pwrStateResidencyTicks::UNDEFINED   2147483750                       # Cumulative time (in ticks) in various power states (Tick)
system.mem_ctrls4.power_state.pwrStateResidencyTicks::UNDEFINED   2147483750                       # Cumulative time (in ticks) in various power states (Tick)
system.mem_ctrls40.power_state.pwrStateResidencyTicks::UNDEFINED   2147483750                       # Cumulative time (in ticks) in various power states (Tick)
system.mem_ctrls41.power_state.pwrStateResidencyTicks::UNDEFINED   2147483750                       # Cumulative time (in ticks) in various power states (Tick)
system.mem_ctrls42.power_state.pwrStateResidencyTicks::UNDEFINED   2147483750                       # Cumulative time (in ticks) in various power states (Tick)
system.mem_ctrls43.power_state.pwrStateResidencyTicks::UNDEFINED   2147483750                       # Cumulative time (in ticks) in various power states (Tick)
system.mem_ctrls44.power_state.pwrStateResidencyTicks::UNDEFINED   2147483750                       # Cumulative time (in ticks) in various power states (Tick)
system.mem_ctrls45.power_state.pwrStateResidencyTicks::UNDEFINED   2147483750                       # Cumulative time (in ticks) in various power states (Tick)
system.mem_ctrls46.power_state.pwrStateResidencyTicks::UNDEFINED   2147483750                       # Cumulative time (in ticks) in various power states (Tick)
system.mem_ctrls47.power_state.pwrStateResidencyTicks::UNDEFINED   2147483750                       # Cumulative time (in ticks) in various power states (Tick)
system.mem_ctrls48.power_state.pwrStateResidencyTicks::UNDEFINED   2147483750                       # Cumulative time (in ticks) in various power states (Tick)
system.mem_ctrls49.power_state.pwrStateResidencyTicks::UNDEFINED   2147483750                       # Cumulative time (in ticks) in various power states (Tick)
system.mem_ctrls5.power_state.pwrStateResidencyTicks::UNDEFINED   2147483750                       # Cumulative time (in ticks) in various power states (Tick)
system.mem_ctrls50.power_state.pwrStateResidencyTicks::UNDEFINED   2147483750                       # Cumulative time (in ticks) in various power states (Tick)
system.mem_ctrls51.power_state.pwrStateResidencyTicks::UNDEFINED   2147483750                       # Cumulative time (in ticks) in various power states (Tick)
system.mem_ctrls52.power_state.pwrStateResidencyTicks::UNDEFINED   2147483750                       # Cumulative time (in ticks) in various power states (Tick)
system.mem_ctrls53.power_state.pwrStateResidencyTicks::UNDEFINED   2147483750                       # Cumulative time (in ticks) in various power states (Tick)
system.mem_ctrls54.power_state.pwrStateResidencyTicks::UNDEFINED   2147483750                       # Cumulative time (in ticks) in various power states (Tick)
system.mem_ctrls55.power_state.pwrStateResidencyTicks::UNDEFINED   2147483750                       # Cumulative time (in ticks) in various power states (Tick)
system.mem_ctrls56.power_state.pwrStateResidencyTicks::UNDEFINED   2147483750                       # Cumulative time (in ticks) in various power states (Tick)
system.mem_ctrls57.power_state.pwrStateResidencyTicks::UNDEFINED   2147483750                       # Cumulative time (in ticks) in various power states (Tick)
system.mem_ctrls58.power_state.pwrStateResidencyTicks::UNDEFINED   2147483750                       # Cumulative time (in ticks) in various power states (Tick)
system.mem_ctrls59.power_state.pwrStateResidencyTicks::UNDEFINED   2147483750                       # Cumulative time (in ticks) in various power states (Tick)
system.mem_ctrls6.power_state.pwrStateResidencyTicks::UNDEFINED   2147483750                       # Cumulative time (in ticks) in various power states (Tick)
system.mem_ctrls60.power_state.pwrStateResidencyTicks::UNDEFINED   2147483750                       # Cumulative time (in ticks) in various power states (Tick)
system.mem_ctrls61.power_state.pwrStateResidencyTicks::UNDEFINED   2147483750                       # Cumulative time (in ticks) in various power states (Tick)
system.mem_ctrls62.power_state.pwrStateResidencyTicks::UNDEFINED   2147483750                       # Cumulative time (in ticks) in various power states (Tick)
system.mem_ctrls63.power_state.pwrStateResidencyTicks::UNDEFINED   2147483750                       # Cumulative time (in ticks) in various power states (Tick)
system.mem_ctrls64.power_state.pwrStateResidencyTicks::UNDEFINED   2147483750                       # Cumulative time (in ticks) in various power states (Tick)
system.mem_ctrls65.power_state.pwrStateResidencyTicks::UNDEFINED   2147483750                       # Cumulative time (in ticks) in various power states (Tick)
system.mem_ctrls66.power_state.pwrStateResidencyTicks::UNDEFINED   2147483750                       # Cumulative time (in ticks) in various power states (Tick)
system.mem_ctrls67.power_state.pwrStateResidencyTicks::UNDEFINED   2147483750                       # Cumulative time (in ticks) in various power states (Tick)
system.mem_ctrls68.power_state.pwrStateResidencyTicks::UNDEFINED   2147483750                       # Cumulative time (in ticks) in various power states (Tick)
system.mem_ctrls69.power_state.pwrStateResidencyTicks::UNDEFINED   2147483750                       # Cumulative time (in ticks) in various power states (Tick)
system.mem_ctrls7.power_state.pwrStateResidencyTicks::UNDEFINED   2147483750                       # Cumulative time (in ticks) in various power states (Tick)
system.mem_ctrls70.power_state.pwrStateResidencyTicks::UNDEFINED   2147483750                       # Cumulative time (in ticks) in various power states (Tick)
system.mem_ctrls71.power_state.pwrStateResidencyTicks::UNDEFINED   2147483750                       # Cumulative time (in ticks) in various power states (Tick)
system.mem_ctrls72.power_state.pwrStateResidencyTicks::UNDEFINED   2147483750                       # Cumulative time (in ticks) in various power states (Tick)
system.mem_ctrls73.power_state.pwrStateResidencyTicks::UNDEFINED   2147483750                       # Cumulative time (in ticks) in various power states (Tick)
system.mem_ctrls74.power_state.pwrStateResidencyTicks::UNDEFINED   2147483750                       # Cumulative time (in ticks) in various power states (Tick)
system.mem_ctrls75.power_state.pwrStateResidencyTicks::UNDEFINED   2147483750                       # Cumulative time (in ticks) in various power states (Tick)
system.mem_ctrls76.power_state.pwrStateResidencyTicks::UNDEFINED   2147483750                       # Cumulative time (in ticks) in various power states (Tick)
system.mem_ctrls77.power_state.pwrStateResidencyTicks::UNDEFINED   2147483750                       # Cumulative time (in ticks) in various power states (Tick)
system.mem_ctrls78.power_state.pwrStateResidencyTicks::UNDEFINED   2147483750                       # Cumulative time (in ticks) in various power states (Tick)
system.mem_ctrls79.power_state.pwrStateResidencyTicks::UNDEFINED   2147483750                       # Cumulative time (in ticks) in various power states (Tick)
system.mem_ctrls8.power_state.pwrStateResidencyTicks::UNDEFINED   2147483750                       # Cumulative time (in ticks) in various power states (Tick)
system.mem_ctrls80.power_state.pwrStateResidencyTicks::UNDEFINED   2147483750                       # Cumulative time (in ticks) in various power states (Tick)
system.mem_ctrls81.power_state.pwrStateResidencyTicks::UNDEFINED   2147483750                       # Cumulative time (in ticks) in various power states (Tick)
system.mem_ctrls82.power_state.pwrStateResidencyTicks::UNDEFINED   2147483750                       # Cumulative time (in ticks) in various power states (Tick)
system.mem_ctrls83.power_state.pwrStateResidencyTicks::UNDEFINED   2147483750                       # Cumulative time (in ticks) in various power states (Tick)
system.mem_ctrls84.power_state.pwrStateResidencyTicks::UNDEFINED   2147483750                       # Cumulative time (in ticks) in various power states (Tick)
system.mem_ctrls85.power_state.pwrStateResidencyTicks::UNDEFINED   2147483750                       # Cumulative time (in ticks) in various power states (Tick)
system.mem_ctrls86.power_state.pwrStateResidencyTicks::UNDEFINED   2147483750                       # Cumulative time (in ticks) in various power states (Tick)
system.mem_ctrls87.power_state.pwrStateResidencyTicks::UNDEFINED   2147483750                       # Cumulative time (in ticks) in various power states (Tick)
system.mem_ctrls88.power_state.pwrStateResidencyTicks::UNDEFINED   2147483750                       # Cumulative time (in ticks) in various power states (Tick)
system.mem_ctrls89.power_state.pwrStateResidencyTicks::UNDEFINED   2147483750                       # Cumulative time (in ticks) in various power states (Tick)
system.mem_ctrls9.power_state.pwrStateResidencyTicks::UNDEFINED   2147483750                       # Cumulative time (in ticks) in various power states (Tick)
system.mem_ctrls90.power_state.pwrStateResidencyTicks::UNDEFINED   2147483750                       # Cumulative time (in ticks) in various power states (Tick)
system.mem_ctrls91.power_state.pwrStateResidencyTicks::UNDEFINED   2147483750                       # Cumulative time (in ticks) in various power states (Tick)
system.mem_ctrls92.power_state.pwrStateResidencyTicks::UNDEFINED   2147483750                       # Cumulative time (in ticks) in various power states (Tick)
system.mem_ctrls93.power_state.pwrStateResidencyTicks::UNDEFINED   2147483750                       # Cumulative time (in ticks) in various power states (Tick)
system.mem_ctrls94.power_state.pwrStateResidencyTicks::UNDEFINED   2147483750                       # Cumulative time (in ticks) in various power states (Tick)
system.mem_ctrls95.power_state.pwrStateResidencyTicks::UNDEFINED   2147483750                       # Cumulative time (in ticks) in various power states (Tick)
system.mem_ctrls96.power_state.pwrStateResidencyTicks::UNDEFINED   2147483750                       # Cumulative time (in ticks) in various power states (Tick)
system.mem_ctrls97.power_state.pwrStateResidencyTicks::UNDEFINED   2147483750                       # Cumulative time (in ticks) in various power states (Tick)
system.mem_ctrls98.power_state.pwrStateResidencyTicks::UNDEFINED   2147483750                       # Cumulative time (in ticks) in various power states (Tick)
system.mem_ctrls99.power_state.pwrStateResidencyTicks::UNDEFINED   2147483750                       # Cumulative time (in ticks) in various power states (Tick)
system.ruby.m_outstandReqHistSeqr::bucket_size            1                       (Unspecified)
system.ruby.m_outstandReqHistSeqr::max_bucket            9                       (Unspecified)
system.ruby.m_outstandReqHistSeqr::samples     30890768                       (Unspecified)
system.ruby.m_outstandReqHistSeqr::mean             1                       (Unspecified)
system.ruby.m_outstandReqHistSeqr::gmean            1                       (Unspecified)
system.ruby.m_outstandReqHistSeqr        |           0      0.00%      0.00% |    30890768    100.00%    100.00% |           0      0.00%    100.00% |           0      0.00%    100.00% |           0      0.00%    100.00% |           0      0.00%    100.00% |           0      0.00%    100.00% |           0      0.00%    100.00% |           0      0.00%    100.00% |           0      0.00%    100.00% (Unspecified)
system.ruby.m_outstandReqHistSeqr::total     30890768                       (Unspecified)
system.ruby.m_latencyHistSeqr::bucket_size            1                       (Unspecified)
system.ruby.m_latencyHistSeqr::max_bucket            9                       (Unspecified)
system.ruby.m_latencyHistSeqr::samples       30890763                       (Unspecified)
system.ruby.m_latencyHistSeqr::mean                 1                       (Unspecified)
system.ruby.m_latencyHistSeqr::gmean                1                       (Unspecified)
system.ruby.m_latencyHistSeqr            |           0      0.00%      0.00% |    30890763    100.00%    100.00% |           0      0.00%    100.00% |           0      0.00%    100.00% |           0      0.00%    100.00% |           0      0.00%    100.00% |           0      0.00%    100.00% |           0      0.00%    100.00% |           0      0.00%    100.00% |           0      0.00%    100.00% (Unspecified)
system.ruby.m_latencyHistSeqr::total         30890763                       (Unspecified)
system.ruby.m_hitLatencyHistSeqr::bucket_size            1                       (Unspecified)
system.ruby.m_hitLatencyHistSeqr::max_bucket            9                       (Unspecified)
system.ruby.m_hitLatencyHistSeqr::samples     30890763                       (Unspecified)
system.ruby.m_hitLatencyHistSeqr::mean              1                       (Unspecified)
system.ruby.m_hitLatencyHistSeqr::gmean             1                       (Unspecified)
system.ruby.m_hitLatencyHistSeqr         |           0      0.00%      0.00% |    30890763    100.00%    100.00% |           0      0.00%    100.00% |           0      0.00%    100.00% |           0      0.00%    100.00% |           0      0.00%    100.00% |           0      0.00%    100.00% |           0      0.00%    100.00% |           0      0.00%    100.00% |           0      0.00%    100.00% (Unspecified)
system.ruby.m_hitLatencyHistSeqr::total      30890763                       (Unspecified)
system.ruby.Directory_Controller.Receive_Request |       96105      0.62%      0.62% |       96505      0.62%      1.25% |       96266      0.62%      1.87% |       96576      0.63%      2.50% |       96785      0.63%      3.12% |       96504      0.62%      3.75% |       96732      0.63%      4.37% |       96902      0.63%      5.00% |       97249      0.63%      5.63% |       96486      0.62%      6.25% |       96386      0.62%      6.88% |       96391      0.62%      7.50% |       96275      0.62%      8.13% |       96422      0.62%      8.75% |       96359      0.62%      9.37% |       96050      0.62%     10.00% |       96439      0.62%     10.62% |       96972      0.63%     11.25% |       96606      0.63%     11.87% |       96693      0.63%     12.50% |       96897      0.63%     13.13% |       96717      0.63%     13.75% |       96698      0.63%     14.38% |       96009      0.62%     15.00% |       96374      0.62%     15.63% |       96646      0.63%     16.25% |       96533      0.62%     16.88% |       96919      0.63%     17.50% |       96600      0.63%     18.13% |       96973      0.63%     18.76% |       96723      0.63%     19.38% |       96674      0.63%     20.01% |       96824      0.63%     20.64% |       96372      0.62%     21.26% |       96481      0.62%     21.88% |       96200      0.62%     22.51% |       96349      0.62%     23.13% |       96222      0.62%     23.75% |       96598      0.63%     24.38% |       96066      0.62%     25.00% |       96521      0.62%     25.63% |       96499      0.62%     26.25% |       96693      0.63%     26.88% |       96853      0.63%     27.50% |       96270      0.62%     28.13% |       97006      0.63%     28.76% |       96452      0.62%     29.38% |       96149      0.62%     30.00% |       96417      0.62%     30.63% |       96734      0.63%     31.25% |       96670      0.63%     31.88% |       96595      0.63%     32.50% |       96397      0.62%     33.13% |       96422      0.62%     33.75% |       96327      0.62%     34.38% |       96476      0.62%     35.00% |       96275      0.62%     35.62% |       96488      0.62%     36.25% |       96570      0.63%     36.87% |       96662      0.63%     37.50% |       96612      0.63%     38.13% |       96090      0.62%     38.75% |       96690      0.63%     39.37% |       96611      0.63%     40.00% |       96496      0.62%     40.62% |       96510      0.62%     41.25% |       96698      0.63%     41.87% |       96298      0.62%     42.50% |       96237      0.62%     43.12% |       96830      0.63%     43.75% |       96418      0.62%     44.37% |       97241      0.63%     45.00% |       96353      0.62%     45.63% |       96302      0.62%     46.25% |       96422      0.62%     46.87% |       96936      0.63%     47.50% |       97218      0.63%     48.13% |       96144      0.62%     48.75% |       96516      0.62%     49.38% |       96487      0.62%     50.00% |       96448      0.62%     50.63% |       96235      0.62%     51.25% |       96096      0.62%     51.87% |       96689      0.63%     52.50% |       96182      0.62%     53.12% |       96530      0.62%     53.75% |       96329      0.62%     54.37% |       96763      0.63%     55.00% |       97137      0.63%     55.63% |       96247      0.62%     56.25% |       96548      0.63%     56.87% |       96849      0.63%     57.50% |       96791      0.63%     58.13% |       96550      0.63%     58.75% |       97032      0.63%     59.38% |       96617      0.63%     60.01% |       96529      0.62%     60.63% |       96532      0.62%     61.26% |       96360      0.62%     61.88% |       96401      0.62%     62.50% |       96807      0.63%     63.13% |       96163      0.62%     63.75% |       96385      0.62%     64.38% |       96398      0.62%     65.00% |       96467      0.62%     65.63% |       96246      0.62%     66.25% |       96852      0.63%     66.88% |       96881      0.63%     67.50% |       96280      0.62%     68.13% |       96505      0.62%     68.75% |       96381      0.62%     69.38% |       96767      0.63%     70.00% |       96977      0.63%     70.63% |       96514      0.62%     71.25% |       97064      0.63%     71.88% |       96337      0.62%     72.51% |       96764      0.63%     73.13% |       96283      0.62%     73.76% |       96580      0.63%     74.38% |       96389      0.62%     75.01% |       95691      0.62%     75.63% |       96588      0.63%     76.25% |       96501      0.62%     76.88% |       96867      0.63%     77.50% |       96299      0.62%     78.13% |       96541      0.63%     78.75% |       96195      0.62%     79.37% |       96508      0.62%     80.00% |       96528      0.62%     80.62% |       96771      0.63%     81.25% |       96346      0.62%     81.87% |       96618      0.63%     82.50% |       96387      0.62%     83.12% |       96637      0.63%     83.75% |       96509      0.62%     84.37% |       96269      0.62%     85.00% |       96061      0.62%     85.62% |       96100      0.62%     86.24% |       96611      0.63%     86.87% |       96846      0.63%     87.49% |       96678      0.63%     88.12% |       96402      0.62%     88.74% |       96415      0.62%     89.37% |       96655      0.63%     89.99% |       95933      0.62%     90.62% |       96422      0.62%     91.24% |       96508      0.62%     91.86% |       96409      0.62%     92.49% |       96312      0.62%     93.11% |       96713      0.63%     93.74% |       96827      0.63%     94.37% |       96455      0.62%     94.99% |       96871      0.63%     95.62% |       96828      0.63%     96.24% |       96559      0.63%     96.87% |       96852      0.63%     97.50% |       96667      0.63%     98.12% |       96443      0.62%     98.75% |       97135      0.63%     99.38% |       96473      0.62%    100.00% (Unspecified)
system.ruby.Directory_Controller.Receive_Request::total     15445498                       (Unspecified)
system.ruby.Directory_Controller.Receive_Response |       46723      0.62%      0.62% |       46705      0.62%      1.25% |       47015      0.63%      1.88% |       46574      0.62%      2.50% |       46499      0.62%      3.12% |       46720      0.62%      3.75% |       46607      0.62%      4.37% |       46923      0.63%      5.00% |       46742      0.63%      5.62% |       46848      0.63%      6.25% |       46813      0.63%      6.88% |       47052      0.63%      7.51% |       46308      0.62%      8.13% |       46768      0.63%      8.75% |       46432      0.62%      9.37% |       46554      0.62%     10.00% |       46408      0.62%     10.62% |       46797      0.63%     11.24% |       46505      0.62%     11.86% |       46275      0.62%     12.48% |       46450      0.62%     13.10% |       46846      0.63%     13.73% |       46935      0.63%     14.36% |       46743      0.63%     14.98% |       46686      0.62%     15.61% |       46686      0.62%     16.23% |       46487      0.62%     16.85% |       46808      0.63%     17.48% |       46687      0.62%     18.10% |       46497      0.62%     18.73% |       46653      0.62%     19.35% |       46536      0.62%     19.97% |       46451      0.62%     20.59% |       46978      0.63%     21.22% |       46777      0.63%     21.85% |       46869      0.63%     22.47% |       47118      0.63%     23.11% |       47016      0.63%     23.73% |       46713      0.62%     24.36% |       46728      0.62%     24.98% |       46878      0.63%     25.61% |       46864      0.63%     26.24% |       46973      0.63%     26.87% |       46943      0.63%     27.49% |       46798      0.63%     28.12% |       46974      0.63%     28.75% |       46737      0.63%     29.37% |       46855      0.63%     30.00% |       46711      0.62%     30.62% |       46451      0.62%     31.25% |       46730      0.63%     31.87% |       46739      0.63%     32.50% |       46512      0.62%     33.12% |       47267      0.63%     33.75% |       46702      0.62%     34.37% |       46789      0.63%     35.00% |       46300      0.62%     35.62% |       46567      0.62%     36.24% |       46744      0.63%     36.87% |       46967      0.63%     37.50% |       46727      0.62%     38.12% |       46741      0.63%     38.75% |       46806      0.63%     39.37% |       46983      0.63%     40.00% |       46536      0.62%     40.62% |       46882      0.63%     41.25% |       46908      0.63%     41.88% |       46386      0.62%     42.50% |       46770      0.63%     43.12% |       46599      0.62%     43.75% |       46614      0.62%     44.37% |       46790      0.63%     45.00% |       46536      0.62%     45.62% |       46367      0.62%     46.24% |       46825      0.63%     46.87% |       46811      0.63%     47.49% |       46752      0.63%     48.12% |       46806      0.63%     48.74% |       46579      0.62%     49.37% |       46662      0.62%     49.99% |       46784      0.63%     50.62% |       47206      0.63%     51.25% |       46698      0.62%     51.87% |       46765      0.63%     52.50% |       46377      0.62%     53.12% |       46856      0.63%     53.74% |       46982      0.63%     54.37% |       46688      0.62%     55.00% |       46566      0.62%     55.62% |       46330      0.62%     56.24% |       46571      0.62%     56.86% |       46692      0.62%     57.49% |       46933      0.63%     58.11% |       46624      0.62%     58.74% |       46729      0.63%     59.36% |       46570      0.62%     59.99% |       46702      0.62%     60.61% |       47074      0.63%     61.24% |       46696      0.62%     61.86% |       46887      0.63%     62.49% |       46639      0.62%     63.12% |       46872      0.63%     63.74% |       46803      0.63%     64.37% |       46702      0.62%     64.99% |       46721      0.62%     65.62% |       47347      0.63%     66.25% |       46959      0.63%     66.88% |       46637      0.62%     67.50% |       46582      0.62%     68.13% |       46744      0.63%     68.75% |       46811      0.63%     69.38% |       46886      0.63%     70.00% |       47175      0.63%     70.64% |       46636      0.62%     71.26% |       46697      0.62%     71.88% |       47079      0.63%     72.51% |       46579      0.62%     73.14% |       46518      0.62%     73.76% |       46684      0.62%     74.38% |       46671      0.62%     75.01% |       47033      0.63%     75.64% |       47073      0.63%     76.27% |       46723      0.62%     76.89% |       46654      0.62%     77.52% |       46416      0.62%     78.14% |       46853      0.63%     78.76% |       46577      0.62%     79.39% |       46763      0.63%     80.01% |       46439      0.62%     80.63% |       46443      0.62%     81.25% |       47066      0.63%     81.88% |       46687      0.62%     82.51% |       46688      0.62%     83.13% |       46972      0.63%     83.76% |       46556      0.62%     84.38% |       46957      0.63%     85.01% |       46969      0.63%     85.64% |       46389      0.62%     86.26% |       46272      0.62%     86.88% |       47082      0.63%     87.51% |       46814      0.63%     88.13% |       46428      0.62%     88.76% |       46609      0.62%     89.38% |       46653      0.62%     90.00% |       46657      0.62%     90.63% |       46756      0.63%     91.25% |       47135      0.63%     91.88% |       46587      0.62%     92.51% |       46503      0.62%     93.13% |       47015      0.63%     93.76% |       46688      0.62%     94.38% |       46644      0.62%     95.00% |       46432      0.62%     95.63% |       46476      0.62%     96.25% |       46752      0.63%     96.87% |       46970      0.63%     97.50% |       46596      0.62%     98.12% |       46757      0.63%     98.75% |       46922      0.63%     99.38% |       46572      0.62%    100.00% (Unspecified)
system.ruby.Directory_Controller.Receive_Response::total      7476563                       (Unspecified)
system.ruby.Directory_Controller.I.Receive_Request |       96105      0.62%      0.62% |       96505      0.62%      1.25% |       96266      0.62%      1.87% |       96576      0.63%      2.50% |       96785      0.63%      3.12% |       96504      0.62%      3.75% |       96732      0.63%      4.37% |       96902      0.63%      5.00% |       97249      0.63%      5.63% |       96486      0.62%      6.25% |       96386      0.62%      6.88% |       96391      0.62%      7.50% |       96275      0.62%      8.13% |       96422      0.62%      8.75% |       96359      0.62%      9.37% |       96050      0.62%     10.00% |       96439      0.62%     10.62% |       96972      0.63%     11.25% |       96606      0.63%     11.87% |       96693      0.63%     12.50% |       96897      0.63%     13.13% |       96717      0.63%     13.75% |       96698      0.63%     14.38% |       96009      0.62%     15.00% |       96374      0.62%     15.63% |       96646      0.63%     16.25% |       96533      0.62%     16.88% |       96919      0.63%     17.50% |       96600      0.63%     18.13% |       96973      0.63%     18.76% |       96723      0.63%     19.38% |       96674      0.63%     20.01% |       96824      0.63%     20.64% |       96372      0.62%     21.26% |       96481      0.62%     21.88% |       96200      0.62%     22.51% |       96349      0.62%     23.13% |       96222      0.62%     23.75% |       96598      0.63%     24.38% |       96066      0.62%     25.00% |       96521      0.62%     25.63% |       96499      0.62%     26.25% |       96693      0.63%     26.88% |       96853      0.63%     27.50% |       96270      0.62%     28.13% |       97006      0.63%     28.76% |       96452      0.62%     29.38% |       96149      0.62%     30.00% |       96417      0.62%     30.63% |       96734      0.63%     31.25% |       96670      0.63%     31.88% |       96595      0.63%     32.50% |       96397      0.62%     33.13% |       96422      0.62%     33.75% |       96327      0.62%     34.38% |       96476      0.62%     35.00% |       96275      0.62%     35.62% |       96488      0.62%     36.25% |       96570      0.63%     36.87% |       96662      0.63%     37.50% |       96612      0.63%     38.13% |       96090      0.62%     38.75% |       96690      0.63%     39.37% |       96611      0.63%     40.00% |       96496      0.62%     40.62% |       96510      0.62%     41.25% |       96698      0.63%     41.87% |       96298      0.62%     42.50% |       96237      0.62%     43.12% |       96830      0.63%     43.75% |       96418      0.62%     44.37% |       97241      0.63%     45.00% |       96353      0.62%     45.63% |       96302      0.62%     46.25% |       96422      0.62%     46.87% |       96936      0.63%     47.50% |       97218      0.63%     48.13% |       96144      0.62%     48.75% |       96516      0.62%     49.38% |       96487      0.62%     50.00% |       96448      0.62%     50.63% |       96235      0.62%     51.25% |       96096      0.62%     51.87% |       96689      0.63%     52.50% |       96182      0.62%     53.12% |       96530      0.62%     53.75% |       96329      0.62%     54.37% |       96763      0.63%     55.00% |       97137      0.63%     55.63% |       96247      0.62%     56.25% |       96548      0.63%     56.87% |       96849      0.63%     57.50% |       96791      0.63%     58.13% |       96550      0.63%     58.75% |       97032      0.63%     59.38% |       96617      0.63%     60.01% |       96529      0.62%     60.63% |       96532      0.62%     61.26% |       96360      0.62%     61.88% |       96401      0.62%     62.50% |       96807      0.63%     63.13% |       96163      0.62%     63.75% |       96385      0.62%     64.38% |       96398      0.62%     65.00% |       96467      0.62%     65.63% |       96246      0.62%     66.25% |       96852      0.63%     66.88% |       96881      0.63%     67.50% |       96280      0.62%     68.13% |       96505      0.62%     68.75% |       96381      0.62%     69.38% |       96767      0.63%     70.00% |       96977      0.63%     70.63% |       96514      0.62%     71.25% |       97064      0.63%     71.88% |       96337      0.62%     72.51% |       96764      0.63%     73.13% |       96283      0.62%     73.76% |       96580      0.63%     74.38% |       96389      0.62%     75.01% |       95691      0.62%     75.63% |       96588      0.63%     76.25% |       96501      0.62%     76.88% |       96867      0.63%     77.50% |       96299      0.62%     78.13% |       96541      0.63%     78.75% |       96195      0.62%     79.37% |       96508      0.62%     80.00% |       96528      0.62%     80.62% |       96771      0.63%     81.25% |       96346      0.62%     81.87% |       96618      0.63%     82.50% |       96387      0.62%     83.12% |       96637      0.63%     83.75% |       96509      0.62%     84.37% |       96269      0.62%     85.00% |       96061      0.62%     85.62% |       96100      0.62%     86.24% |       96611      0.63%     86.87% |       96846      0.63%     87.49% |       96678      0.63%     88.12% |       96402      0.62%     88.74% |       96415      0.62%     89.37% |       96655      0.63%     89.99% |       95933      0.62%     90.62% |       96422      0.62%     91.24% |       96508      0.62%     91.86% |       96409      0.62%     92.49% |       96312      0.62%     93.11% |       96713      0.63%     93.74% |       96827      0.63%     94.37% |       96455      0.62%     94.99% |       96871      0.63%     95.62% |       96828      0.63%     96.24% |       96559      0.63%     96.87% |       96852      0.63%     97.50% |       96667      0.63%     98.12% |       96443      0.62%     98.75% |       97135      0.63%     99.38% |       96473      0.62%    100.00% (Unspecified)
system.ruby.Directory_Controller.I.Receive_Request::total     15445498                       (Unspecified)
system.ruby.Directory_Controller.I.Receive_Response |       46723      0.62%      0.62% |       46705      0.62%      1.25% |       47015      0.63%      1.88% |       46574      0.62%      2.50% |       46499      0.62%      3.12% |       46720      0.62%      3.75% |       46607      0.62%      4.37% |       46923      0.63%      5.00% |       46742      0.63%      5.62% |       46848      0.63%      6.25% |       46813      0.63%      6.88% |       47052      0.63%      7.51% |       46308      0.62%      8.13% |       46768      0.63%      8.75% |       46432      0.62%      9.37% |       46554      0.62%     10.00% |       46408      0.62%     10.62% |       46797      0.63%     11.24% |       46505      0.62%     11.86% |       46275      0.62%     12.48% |       46450      0.62%     13.10% |       46846      0.63%     13.73% |       46935      0.63%     14.36% |       46743      0.63%     14.98% |       46686      0.62%     15.61% |       46686      0.62%     16.23% |       46487      0.62%     16.85% |       46808      0.63%     17.48% |       46687      0.62%     18.10% |       46497      0.62%     18.73% |       46653      0.62%     19.35% |       46536      0.62%     19.97% |       46451      0.62%     20.59% |       46978      0.63%     21.22% |       46777      0.63%     21.85% |       46869      0.63%     22.47% |       47118      0.63%     23.11% |       47016      0.63%     23.73% |       46713      0.62%     24.36% |       46728      0.62%     24.98% |       46878      0.63%     25.61% |       46864      0.63%     26.24% |       46973      0.63%     26.87% |       46943      0.63%     27.49% |       46798      0.63%     28.12% |       46974      0.63%     28.75% |       46737      0.63%     29.37% |       46855      0.63%     30.00% |       46711      0.62%     30.62% |       46451      0.62%     31.25% |       46730      0.63%     31.87% |       46739      0.63%     32.50% |       46512      0.62%     33.12% |       47267      0.63%     33.75% |       46702      0.62%     34.37% |       46789      0.63%     35.00% |       46300      0.62%     35.62% |       46567      0.62%     36.24% |       46744      0.63%     36.87% |       46967      0.63%     37.50% |       46727      0.62%     38.12% |       46741      0.63%     38.75% |       46806      0.63%     39.37% |       46983      0.63%     40.00% |       46536      0.62%     40.62% |       46882      0.63%     41.25% |       46908      0.63%     41.88% |       46386      0.62%     42.50% |       46770      0.63%     43.12% |       46599      0.62%     43.75% |       46614      0.62%     44.37% |       46790      0.63%     45.00% |       46536      0.62%     45.62% |       46367      0.62%     46.24% |       46825      0.63%     46.87% |       46811      0.63%     47.49% |       46752      0.63%     48.12% |       46806      0.63%     48.74% |       46579      0.62%     49.37% |       46662      0.62%     49.99% |       46784      0.63%     50.62% |       47206      0.63%     51.25% |       46698      0.62%     51.87% |       46765      0.63%     52.50% |       46377      0.62%     53.12% |       46856      0.63%     53.74% |       46982      0.63%     54.37% |       46688      0.62%     55.00% |       46566      0.62%     55.62% |       46330      0.62%     56.24% |       46571      0.62%     56.86% |       46692      0.62%     57.49% |       46933      0.63%     58.11% |       46624      0.62%     58.74% |       46729      0.63%     59.36% |       46570      0.62%     59.99% |       46702      0.62%     60.61% |       47074      0.63%     61.24% |       46696      0.62%     61.86% |       46887      0.63%     62.49% |       46639      0.62%     63.12% |       46872      0.63%     63.74% |       46803      0.63%     64.37% |       46702      0.62%     64.99% |       46721      0.62%     65.62% |       47347      0.63%     66.25% |       46959      0.63%     66.88% |       46637      0.62%     67.50% |       46582      0.62%     68.13% |       46744      0.63%     68.75% |       46811      0.63%     69.38% |       46886      0.63%     70.00% |       47175      0.63%     70.64% |       46636      0.62%     71.26% |       46697      0.62%     71.88% |       47079      0.63%     72.51% |       46579      0.62%     73.14% |       46518      0.62%     73.76% |       46684      0.62%     74.38% |       46671      0.62%     75.01% |       47033      0.63%     75.64% |       47073      0.63%     76.27% |       46723      0.62%     76.89% |       46654      0.62%     77.52% |       46416      0.62%     78.14% |       46853      0.63%     78.76% |       46577      0.62%     79.39% |       46763      0.63%     80.01% |       46439      0.62%     80.63% |       46443      0.62%     81.25% |       47066      0.63%     81.88% |       46687      0.62%     82.51% |       46688      0.62%     83.13% |       46972      0.63%     83.76% |       46556      0.62%     84.38% |       46957      0.63%     85.01% |       46969      0.63%     85.64% |       46389      0.62%     86.26% |       46272      0.62%     86.88% |       47082      0.63%     87.51% |       46814      0.63%     88.13% |       46428      0.62%     88.76% |       46609      0.62%     89.38% |       46653      0.62%     90.00% |       46657      0.62%     90.63% |       46756      0.63%     91.25% |       47135      0.63%     91.88% |       46587      0.62%     92.51% |       46503      0.62%     93.13% |       47015      0.63%     93.76% |       46688      0.62%     94.38% |       46644      0.62%     95.00% |       46432      0.62%     95.63% |       46476      0.62%     96.25% |       46752      0.63%     96.87% |       46970      0.63%     97.50% |       46596      0.62%     98.12% |       46757      0.63%     98.75% |       46922      0.63%     99.38% |       46572      0.62%    100.00% (Unspecified)
system.ruby.Directory_Controller.I.Receive_Response::total      7476563                       (Unspecified)
system.ruby.L1Cache_Controller.Request   |      386359      2.50%      2.50% |      387720      2.51%      5.01% |      385318      2.49%      7.51% |      386697      2.50%     10.01% |      386221      2.50%     12.51% |      385018      2.49%     15.00% |      386492      2.50%     17.51% |      385532      2.50%     20.00% |      386451      2.50%     22.50% |      386399      2.50%     25.01% |      386622      2.50%     27.51% |      385982      2.50%     30.01% |      385370      2.50%     32.50% |      385984      2.50%     35.00% |      386711      2.50%     37.51% |      386629      2.50%     40.01% |      385796      2.50%     42.51% |      385300      2.49%     45.00% |      385666      2.50%     47.50% |      386283      2.50%     50.00% |      386327      2.50%     52.50% |      385688      2.50%     55.00% |      385171      2.49%     57.49% |      386886      2.50%     60.00% |      386049      2.50%     62.49% |      386414      2.50%     65.00% |      386003      2.50%     67.50% |      385697      2.50%     69.99% |      386092      2.50%     72.49% |      385306      2.49%     74.99% |      385786      2.50%     77.48% |      386464      2.50%     79.99% |      386840      2.50%     82.49% |      385476      2.50%     84.99% |      386369      2.50%     87.49% |      386213      2.50%     89.99% |      386194      2.50%     92.49% |      386309      2.50%     94.99% |      387311      2.51%     97.50% |      386391      2.50%    100.00% (Unspecified)
system.ruby.L1Cache_Controller.Request::total     15445536                       (Unspecified)
system.ruby.L1Cache_Controller.Response  |      385251      2.49%      2.49% |      386328      2.50%      5.00% |      387113      2.51%      7.50% |      386536      2.50%     10.00% |      386871      2.50%     12.51% |      386254      2.50%     15.01% |      387125      2.51%     17.52% |      385347      2.49%     20.01% |      386730      2.50%     22.52% |      386190      2.50%     25.02% |      386625      2.50%     27.52% |      385746      2.50%     30.02% |      385978      2.50%     32.52% |      385898      2.50%     35.01% |      386433      2.50%     37.52% |      386448      2.50%     40.02% |      386211      2.50%     42.52% |      385414      2.50%     45.01% |      385401      2.50%     47.51% |      385396      2.50%     50.00% |      386586      2.50%     52.51% |      385019      2.49%     55.00% |      387749      2.51%     57.51% |      386218      2.50%     60.01% |      384809      2.49%     62.50% |      387038      2.51%     65.01% |      386228      2.50%     67.51% |      386170      2.50%     70.01% |      386345      2.50%     72.51% |      385310      2.49%     75.01% |      385336      2.49%     77.50% |      385971      2.50%     80.00% |      385652      2.50%     82.50% |      386039      2.50%     85.00% |      385724      2.50%     87.49% |      386865      2.50%     90.00% |      386121      2.50%     92.50% |      386721      2.50%     95.00% |      385427      2.50%     97.50% |      386604      2.50%    100.00% (Unspecified)
system.ruby.L1Cache_Controller.Response::total     15445227                       (Unspecified)
system.ruby.L1Cache_Controller.I.Request |      386359      2.50%      2.50% |      387720      2.51%      5.01% |      385318      2.49%      7.51% |      386697      2.50%     10.01% |      386221      2.50%     12.51% |      385018      2.49%     15.00% |      386492      2.50%     17.51% |      385532      2.50%     20.00% |      386451      2.50%     22.50% |      386399      2.50%     25.01% |      386622      2.50%     27.51% |      385982      2.50%     30.01% |      385370      2.50%     32.50% |      385984      2.50%     35.00% |      386711      2.50%     37.51% |      386629      2.50%     40.01% |      385796      2.50%     42.51% |      385300      2.49%     45.00% |      385666      2.50%     47.50% |      386283      2.50%     50.00% |      386327      2.50%     52.50% |      385688      2.50%     55.00% |      385171      2.49%     57.49% |      386886      2.50%     60.00% |      386049      2.50%     62.49% |      386414      2.50%     65.00% |      386003      2.50%     67.50% |      385697      2.50%     69.99% |      386092      2.50%     72.49% |      385306      2.49%     74.99% |      385786      2.50%     77.48% |      386464      2.50%     79.99% |      386840      2.50%     82.49% |      385476      2.50%     84.99% |      386369      2.50%     87.49% |      386213      2.50%     89.99% |      386194      2.50%     92.49% |      386309      2.50%     94.99% |      387311      2.51%     97.50% |      386391      2.50%    100.00% (Unspecified)
system.ruby.L1Cache_Controller.I.Request::total     15445536                       (Unspecified)
system.ruby.L1Cache_Controller.I.Response |      385251      2.49%      2.49% |      386328      2.50%      5.00% |      387113      2.51%      7.50% |      386536      2.50%     10.00% |      386871      2.50%     12.51% |      386254      2.50%     15.01% |      387125      2.51%     17.52% |      385347      2.49%     20.01% |      386730      2.50%     22.52% |      386190      2.50%     25.02% |      386625      2.50%     27.52% |      385746      2.50%     30.02% |      385978      2.50%     32.52% |      385898      2.50%     35.01% |      386433      2.50%     37.52% |      386448      2.50%     40.02% |      386211      2.50%     42.52% |      385414      2.50%     45.01% |      385401      2.50%     47.51% |      385396      2.50%     50.00% |      386586      2.50%     52.51% |      385019      2.49%     55.00% |      387749      2.51%     57.51% |      386218      2.50%     60.01% |      384809      2.49%     62.50% |      387038      2.51%     65.01% |      386228      2.50%     67.51% |      386170      2.50%     70.01% |      386345      2.50%     72.51% |      385310      2.49%     75.01% |      385336      2.49%     77.50% |      385971      2.50%     80.00% |      385652      2.50%     82.50% |      386039      2.50%     85.00% |      385724      2.50%     87.49% |      386865      2.50%     90.00% |      386121      2.50%     92.50% |      386721      2.50%     95.00% |      385427      2.50%     97.50% |      386604      2.50%    100.00% (Unspecified)
system.ruby.L1Cache_Controller.I.Response::total     15445227                       (Unspecified)
system.ruby.RequestType.LD.latency_hist_seqr::bucket_size            1                       (Unspecified)
system.ruby.RequestType.LD.latency_hist_seqr::max_bucket            9                       (Unspecified)
system.ruby.RequestType.LD.latency_hist_seqr::samples     15445536                       (Unspecified)
system.ruby.RequestType.LD.latency_hist_seqr::mean            1                       (Unspecified)
system.ruby.RequestType.LD.latency_hist_seqr::gmean            1                       (Unspecified)
system.ruby.RequestType.LD.latency_hist_seqr |           0      0.00%      0.00% |    15445536    100.00%    100.00% |           0      0.00%    100.00% |           0      0.00%    100.00% |           0      0.00%    100.00% |           0      0.00%    100.00% |           0      0.00%    100.00% |           0      0.00%    100.00% |           0      0.00%    100.00% |           0      0.00%    100.00% (Unspecified)
system.ruby.RequestType.LD.latency_hist_seqr::total     15445536                       (Unspecified)
system.ruby.RequestType.LD.hit_latency_hist_seqr::bucket_size            1                       (Unspecified)
system.ruby.RequestType.LD.hit_latency_hist_seqr::max_bucket            9                       (Unspecified)
system.ruby.RequestType.LD.hit_latency_hist_seqr::samples     15445536                       (Unspecified)
system.ruby.RequestType.LD.hit_latency_hist_seqr::mean            1                       (Unspecified)
system.ruby.RequestType.LD.hit_latency_hist_seqr::gmean            1                       (Unspecified)
system.ruby.RequestType.LD.hit_latency_hist_seqr |           0      0.00%      0.00% |    15445536    100.00%    100.00% |           0      0.00%    100.00% |           0      0.00%    100.00% |           0      0.00%    100.00% |           0      0.00%    100.00% |           0      0.00%    100.00% |           0      0.00%    100.00% |           0      0.00%    100.00% |           0      0.00%    100.00% (Unspecified)
system.ruby.RequestType.LD.hit_latency_hist_seqr::total     15445536                       (Unspecified)
system.ruby.RequestType.ST.latency_hist_seqr::bucket_size            1                       (Unspecified)
system.ruby.RequestType.ST.latency_hist_seqr::max_bucket            9                       (Unspecified)
system.ruby.RequestType.ST.latency_hist_seqr::samples     15445227                       (Unspecified)
system.ruby.RequestType.ST.latency_hist_seqr::mean            1                       (Unspecified)
system.ruby.RequestType.ST.latency_hist_seqr::gmean            1                       (Unspecified)
system.ruby.RequestType.ST.latency_hist_seqr |           0      0.00%      0.00% |    15445227    100.00%    100.00% |           0      0.00%    100.00% |           0      0.00%    100.00% |           0      0.00%    100.00% |           0      0.00%    100.00% |           0      0.00%    100.00% |           0      0.00%    100.00% |           0      0.00%    100.00% |           0      0.00%    100.00% (Unspecified)
system.ruby.RequestType.ST.latency_hist_seqr::total     15445227                       (Unspecified)
system.ruby.RequestType.ST.hit_latency_hist_seqr::bucket_size            1                       (Unspecified)
system.ruby.RequestType.ST.hit_latency_hist_seqr::max_bucket            9                       (Unspecified)
system.ruby.RequestType.ST.hit_latency_hist_seqr::samples     15445227                       (Unspecified)
system.ruby.RequestType.ST.hit_latency_hist_seqr::mean            1                       (Unspecified)
system.ruby.RequestType.ST.hit_latency_hist_seqr::gmean            1                       (Unspecified)
system.ruby.RequestType.ST.hit_latency_hist_seqr |           0      0.00%      0.00% |    15445227    100.00%    100.00% |           0      0.00%    100.00% |           0      0.00%    100.00% |           0      0.00%    100.00% |           0      0.00%    100.00% |           0      0.00%    100.00% |           0      0.00%    100.00% |           0      0.00%    100.00% |           0      0.00%    100.00% (Unspecified)
system.ruby.RequestType.ST.hit_latency_hist_seqr::total     15445227                       (Unspecified)
system.ruby.clk_domain.clock                      250                       # Clock period in ticks (Tick)
system.ruby.dir_cntrl0.power_state.pwrStateResidencyTicks::UNDEFINED   2147483750                       # Cumulative time (in ticks) in various power states (Tick)
system.ruby.dir_cntrl0.requestToDir.m_msg_count        96105                       # Number of messages passed the buffer (Count)
system.ruby.dir_cntrl0.requestToDir.m_buf_msgs     0.011188                       # Average number of messages in buffer ((Count/Tick))
system.ruby.dir_cntrl0.responseToDir.m_msg_count        46723                       # Number of messages passed the buffer (Count)
system.ruby.dir_cntrl0.responseToDir.m_buf_msgs     0.005439                       # Average number of messages in buffer ((Count/Tick))
system.ruby.dir_cntrl1.power_state.pwrStateResidencyTicks::UNDEFINED   2147483750                       # Cumulative time (in ticks) in various power states (Tick)
system.ruby.dir_cntrl1.requestToDir.m_msg_count        96505                       # Number of messages passed the buffer (Count)
system.ruby.dir_cntrl1.requestToDir.m_buf_msgs     0.011235                       # Average number of messages in buffer ((Count/Tick))
system.ruby.dir_cntrl1.responseToDir.m_msg_count        46705                       # Number of messages passed the buffer (Count)
system.ruby.dir_cntrl1.responseToDir.m_buf_msgs     0.005437                       # Average number of messages in buffer ((Count/Tick))
system.ruby.dir_cntrl10.power_state.pwrStateResidencyTicks::UNDEFINED   2147483750                       # Cumulative time (in ticks) in various power states (Tick)
system.ruby.dir_cntrl10.requestToDir.m_msg_count        96386                       # Number of messages passed the buffer (Count)
system.ruby.dir_cntrl10.requestToDir.m_buf_msgs     0.011221                       # Average number of messages in buffer ((Count/Tick))
system.ruby.dir_cntrl10.responseToDir.m_msg_count        46813                       # Number of messages passed the buffer (Count)
system.ruby.dir_cntrl10.responseToDir.m_buf_msgs     0.005450                       # Average number of messages in buffer ((Count/Tick))
system.ruby.dir_cntrl100.power_state.pwrStateResidencyTicks::UNDEFINED   2147483750                       # Cumulative time (in ticks) in various power states (Tick)
system.ruby.dir_cntrl100.requestToDir.m_msg_count        96807                       # Number of messages passed the buffer (Count)
system.ruby.dir_cntrl100.requestToDir.m_buf_msgs     0.011270                       # Average number of messages in buffer ((Count/Tick))
system.ruby.dir_cntrl100.responseToDir.m_msg_count        46639                       # Number of messages passed the buffer (Count)
system.ruby.dir_cntrl100.responseToDir.m_buf_msgs     0.005429                       # Average number of messages in buffer ((Count/Tick))
system.ruby.dir_cntrl101.power_state.pwrStateResidencyTicks::UNDEFINED   2147483750                       # Cumulative time (in ticks) in various power states (Tick)
system.ruby.dir_cntrl101.requestToDir.m_msg_count        96163                       # Number of messages passed the buffer (Count)
system.ruby.dir_cntrl101.requestToDir.m_buf_msgs     0.011195                       # Average number of messages in buffer ((Count/Tick))
system.ruby.dir_cntrl101.responseToDir.m_msg_count        46872                       # Number of messages passed the buffer (Count)
system.ruby.dir_cntrl101.responseToDir.m_buf_msgs     0.005457                       # Average number of messages in buffer ((Count/Tick))
system.ruby.dir_cntrl102.power_state.pwrStateResidencyTicks::UNDEFINED   2147483750                       # Cumulative time (in ticks) in various power states (Tick)
system.ruby.dir_cntrl102.requestToDir.m_msg_count        96385                       # Number of messages passed the buffer (Count)
system.ruby.dir_cntrl102.requestToDir.m_buf_msgs     0.011221                       # Average number of messages in buffer ((Count/Tick))
system.ruby.dir_cntrl102.responseToDir.m_msg_count        46803                       # Number of messages passed the buffer (Count)
system.ruby.dir_cntrl102.responseToDir.m_buf_msgs     0.005449                       # Average number of messages in buffer ((Count/Tick))
system.ruby.dir_cntrl103.power_state.pwrStateResidencyTicks::UNDEFINED   2147483750                       # Cumulative time (in ticks) in various power states (Tick)
system.ruby.dir_cntrl103.requestToDir.m_msg_count        96398                       # Number of messages passed the buffer (Count)
system.ruby.dir_cntrl103.requestToDir.m_buf_msgs     0.011222                       # Average number of messages in buffer ((Count/Tick))
system.ruby.dir_cntrl103.responseToDir.m_msg_count        46702                       # Number of messages passed the buffer (Count)
system.ruby.dir_cntrl103.responseToDir.m_buf_msgs     0.005437                       # Average number of messages in buffer ((Count/Tick))
system.ruby.dir_cntrl104.power_state.pwrStateResidencyTicks::UNDEFINED   2147483750                       # Cumulative time (in ticks) in various power states (Tick)
system.ruby.dir_cntrl104.requestToDir.m_msg_count        96467                       # Number of messages passed the buffer (Count)
system.ruby.dir_cntrl104.requestToDir.m_buf_msgs     0.011230                       # Average number of messages in buffer ((Count/Tick))
system.ruby.dir_cntrl104.responseToDir.m_msg_count        46721                       # Number of messages passed the buffer (Count)
system.ruby.dir_cntrl104.responseToDir.m_buf_msgs     0.005439                       # Average number of messages in buffer ((Count/Tick))
system.ruby.dir_cntrl105.power_state.pwrStateResidencyTicks::UNDEFINED   2147483750                       # Cumulative time (in ticks) in various power states (Tick)
system.ruby.dir_cntrl105.requestToDir.m_msg_count        96246                       # Number of messages passed the buffer (Count)
system.ruby.dir_cntrl105.requestToDir.m_buf_msgs     0.011205                       # Average number of messages in buffer ((Count/Tick))
system.ruby.dir_cntrl105.responseToDir.m_msg_count        47347                       # Number of messages passed the buffer (Count)
system.ruby.dir_cntrl105.responseToDir.m_buf_msgs     0.005512                       # Average number of messages in buffer ((Count/Tick))
system.ruby.dir_cntrl106.power_state.pwrStateResidencyTicks::UNDEFINED   2147483750                       # Cumulative time (in ticks) in various power states (Tick)
system.ruby.dir_cntrl106.requestToDir.m_msg_count        96852                       # Number of messages passed the buffer (Count)
system.ruby.dir_cntrl106.requestToDir.m_buf_msgs     0.011275                       # Average number of messages in buffer ((Count/Tick))
system.ruby.dir_cntrl106.responseToDir.m_msg_count        46959                       # Number of messages passed the buffer (Count)
system.ruby.dir_cntrl106.responseToDir.m_buf_msgs     0.005467                       # Average number of messages in buffer ((Count/Tick))
system.ruby.dir_cntrl107.power_state.pwrStateResidencyTicks::UNDEFINED   2147483750                       # Cumulative time (in ticks) in various power states (Tick)
system.ruby.dir_cntrl107.requestToDir.m_msg_count        96881                       # Number of messages passed the buffer (Count)
system.ruby.dir_cntrl107.requestToDir.m_buf_msgs     0.011278                       # Average number of messages in buffer ((Count/Tick))
system.ruby.dir_cntrl107.responseToDir.m_msg_count        46637                       # Number of messages passed the buffer (Count)
system.ruby.dir_cntrl107.responseToDir.m_buf_msgs     0.005429                       # Average number of messages in buffer ((Count/Tick))
system.ruby.dir_cntrl108.power_state.pwrStateResidencyTicks::UNDEFINED   2147483750                       # Cumulative time (in ticks) in various power states (Tick)
system.ruby.dir_cntrl108.requestToDir.m_msg_count        96280                       # Number of messages passed the buffer (Count)
system.ruby.dir_cntrl108.requestToDir.m_buf_msgs     0.011208                       # Average number of messages in buffer ((Count/Tick))
system.ruby.dir_cntrl108.responseToDir.m_msg_count        46582                       # Number of messages passed the buffer (Count)
system.ruby.dir_cntrl108.responseToDir.m_buf_msgs     0.005423                       # Average number of messages in buffer ((Count/Tick))
system.ruby.dir_cntrl109.power_state.pwrStateResidencyTicks::UNDEFINED   2147483750                       # Cumulative time (in ticks) in various power states (Tick)
system.ruby.dir_cntrl109.requestToDir.m_msg_count        96505                       # Number of messages passed the buffer (Count)
system.ruby.dir_cntrl109.requestToDir.m_buf_msgs     0.011235                       # Average number of messages in buffer ((Count/Tick))
system.ruby.dir_cntrl109.responseToDir.m_msg_count        46744                       # Number of messages passed the buffer (Count)
system.ruby.dir_cntrl109.responseToDir.m_buf_msgs     0.005442                       # Average number of messages in buffer ((Count/Tick))
system.ruby.dir_cntrl11.power_state.pwrStateResidencyTicks::UNDEFINED   2147483750                       # Cumulative time (in ticks) in various power states (Tick)
system.ruby.dir_cntrl11.requestToDir.m_msg_count        96391                       # Number of messages passed the buffer (Count)
system.ruby.dir_cntrl11.requestToDir.m_buf_msgs     0.011221                       # Average number of messages in buffer ((Count/Tick))
system.ruby.dir_cntrl11.responseToDir.m_msg_count        47052                       # Number of messages passed the buffer (Count)
[...]
system.ruby.network.sankey.vcvn13.vcvn5             0                       (Unspecified)
system.ruby.network.sankey.vcvn13.vcvn6             0                       (Unspecified)
system.ruby.network.sankey.vcvn13.vcvn7             0                       (Unspecified)
system.ruby.network.sankey.vcvn13.vcvn8             0                       (Unspecified)
system.ruby.network.sankey.vcvn13.vcvn9             0                       (Unspecified)
system.ruby.network.sankey.vcvn14.vcvn0             0                       (Unspecified)
system.ruby.network.sankey.vcvn14.vcvn1             0                       (Unspecified)
system.ruby.network.sankey.vcvn14.vcvn10            0                       (Unspecified)
system.ruby.network.sankey.vcvn14.vcvn11            0                       (Unspecified)
system.ruby.network.sankey.vcvn14.vcvn12      3911801                       (Unspecified)
system.ruby.network.sankey.vcvn14.vcvn13       383510                       (Unspecified)
system.ruby.network.sankey.vcvn14.vcvn14        20095                       (Unspecified)
system.ruby.network.sankey.vcvn14.vcvn15          620                       (Unspecified)
system.ruby.network.sankey.vcvn14.vcvn16       633295                       (Unspecified)
system.ruby.network.sankey.vcvn14.vcvn17       431350                       (Unspecified)
system.ruby.network.sankey.vcvn14.vcvn2             0                       (Unspecified)
system.ruby.network.sankey.vcvn14.vcvn3             0                       (Unspecified)
system.ruby.network.sankey.vcvn14.vcvn4             0                       (Unspecified)
system.ruby.network.sankey.vcvn14.vcvn5             0                       (Unspecified)
system.ruby.network.sankey.vcvn14.vcvn6             0                       (Unspecified)
system.ruby.network.sankey.vcvn14.vcvn7             0                       (Unspecified)
system.ruby.network.sankey.vcvn14.vcvn8             0                       (Unspecified)
system.ruby.network.sankey.vcvn14.vcvn9             0                       (Unspecified)
system.ruby.network.sankey.vcvn15.vcvn0             0                       (Unspecified)
system.ruby.network.sankey.vcvn15.vcvn1             0                       (Unspecified)
system.ruby.network.sankey.vcvn15.vcvn10            0                       (Unspecified)
system.ruby.network.sankey.vcvn15.vcvn11            0                       (Unspecified)
system.ruby.network.sankey.vcvn15.vcvn12      2753626                       (Unspecified)
system.ruby.network.sankey.vcvn15.vcvn13       270250                       (Unspecified)
system.ruby.network.sankey.vcvn15.vcvn14        14235                       (Unspecified)
system.ruby.network.sankey.vcvn15.vcvn15          450                       (Unspecified)
system.ruby.network.sankey.vcvn15.vcvn16       579495                       (Unspecified)
system.ruby.network.sankey.vcvn15.vcvn17       304132                       (Unspecified)
system.ruby.network.sankey.vcvn15.vcvn2             0                       (Unspecified)
system.ruby.network.sankey.vcvn15.vcvn3             0                       (Unspecified)
system.ruby.network.sankey.vcvn15.vcvn4             0                       (Unspecified)
system.ruby.network.sankey.vcvn15.vcvn5             0                       (Unspecified)
system.ruby.network.sankey.vcvn15.vcvn6             0                       (Unspecified)
system.ruby.network.sankey.vcvn15.vcvn7             0                       (Unspecified)
system.ruby.network.sankey.vcvn15.vcvn8             0                       (Unspecified)
system.ruby.network.sankey.vcvn15.vcvn9             0                       (Unspecified)
system.ruby.network.sankey.vcvn16.vcvn0             0                       (Unspecified)
system.ruby.network.sankey.vcvn16.vcvn1             0                       (Unspecified)
system.ruby.network.sankey.vcvn16.vcvn10            0                       (Unspecified)
system.ruby.network.sankey.vcvn16.vcvn11            0                       (Unspecified)
system.ruby.network.sankey.vcvn16.vcvn12            0                       (Unspecified)
system.ruby.network.sankey.vcvn16.vcvn13            0                       (Unspecified)
system.ruby.network.sankey.vcvn16.vcvn14            0                       (Unspecified)
system.ruby.network.sankey.vcvn16.vcvn15            0                       (Unspecified)
system.ruby.network.sankey.vcvn16.vcvn16      4102150                       (Unspecified)
system.ruby.network.sankey.vcvn16.vcvn17            0                       (Unspecified)
system.ruby.network.sankey.vcvn16.vcvn2             0                       (Unspecified)
system.ruby.network.sankey.vcvn16.vcvn3             0                       (Unspecified)
system.ruby.network.sankey.vcvn16.vcvn4             0                       (Unspecified)
system.ruby.network.sankey.vcvn16.vcvn5             0                       (Unspecified)
system.ruby.network.sankey.vcvn16.vcvn6             0                       (Unspecified)
system.ruby.network.sankey.vcvn16.vcvn7             0                       (Unspecified)
system.ruby.network.sankey.vcvn16.vcvn8             0                       (Unspecified)
system.ruby.network.sankey.vcvn16.vcvn9             0                       (Unspecified)
system.ruby.network.sankey.vcvn17.vcvn0             0                       (Unspecified)
system.ruby.network.sankey.vcvn17.vcvn1             0                       (Unspecified)
system.ruby.network.sankey.vcvn17.vcvn10            0                       (Unspecified)
system.ruby.network.sankey.vcvn17.vcvn11            0                       (Unspecified)
system.ruby.network.sankey.vcvn17.vcvn12            0                       (Unspecified)
system.ruby.network.sankey.vcvn17.vcvn13            0                       (Unspecified)
system.ruby.network.sankey.vcvn17.vcvn14            0                       (Unspecified)
system.ruby.network.sankey.vcvn17.vcvn15            0                       (Unspecified)
system.ruby.network.sankey.vcvn17.vcvn16            0                       (Unspecified)
system.ruby.network.sankey.vcvn17.vcvn17      1118605                       (Unspecified)
system.ruby.network.sankey.vcvn17.vcvn2             0                       (Unspecified)
system.ruby.network.sankey.vcvn17.vcvn3             0                       (Unspecified)
system.ruby.network.sankey.vcvn17.vcvn4             0                       (Unspecified)
system.ruby.network.sankey.vcvn17.vcvn5             0                       (Unspecified)
system.ruby.network.sankey.vcvn17.vcvn6             0                       (Unspecified)
system.ruby.network.sankey.vcvn17.vcvn7             0                       (Unspecified)
system.ruby.network.sankey.vcvn17.vcvn8             0                       (Unspecified)
system.ruby.network.sankey.vcvn17.vcvn9             0                       (Unspecified)
system.ruby.network.sankey.vcvn2.vcvn0        2793348                       (Unspecified)
system.ruby.network.sankey.vcvn2.vcvn1         151208                       (Unspecified)
system.ruby.network.sankey.vcvn2.vcvn10             0                       (Unspecified)
system.ruby.network.sankey.vcvn2.vcvn11             0                       (Unspecified)
system.ruby.network.sankey.vcvn2.vcvn12             0                       (Unspecified)
system.ruby.network.sankey.vcvn2.vcvn13             0                       (Unspecified)
system.ruby.network.sankey.vcvn2.vcvn14             0                       (Unspecified)
system.ruby.network.sankey.vcvn2.vcvn15             0                       (Unspecified)
system.ruby.network.sankey.vcvn2.vcvn16             0                       (Unspecified)
system.ruby.network.sankey.vcvn2.vcvn17             0                       (Unspecified)
system.ruby.network.sankey.vcvn2.vcvn2           4081                       (Unspecified)
system.ruby.network.sankey.vcvn2.vcvn3             81                       (Unspecified)
system.ruby.network.sankey.vcvn2.vcvn4           1258                       (Unspecified)
system.ruby.network.sankey.vcvn2.vcvn5          10198                       (Unspecified)
system.ruby.network.sankey.vcvn2.vcvn6              0                       (Unspecified)
system.ruby.network.sankey.vcvn2.vcvn7              0                       (Unspecified)
system.ruby.network.sankey.vcvn2.vcvn8              0                       (Unspecified)
system.ruby.network.sankey.vcvn2.vcvn9              0                       (Unspecified)
system.ruby.network.sankey.vcvn3.vcvn0        2794017                       (Unspecified)
system.ruby.network.sankey.vcvn3.vcvn1         150465                       (Unspecified)
system.ruby.network.sankey.vcvn3.vcvn10             0                       (Unspecified)
system.ruby.network.sankey.vcvn3.vcvn11             0                       (Unspecified)
system.ruby.network.sankey.vcvn3.vcvn12             0                       (Unspecified)
system.ruby.network.sankey.vcvn3.vcvn13             0                       (Unspecified)
system.ruby.network.sankey.vcvn3.vcvn14             0                       (Unspecified)
system.ruby.network.sankey.vcvn3.vcvn15             0                       (Unspecified)
system.ruby.network.sankey.vcvn3.vcvn16             0                       (Unspecified)
system.ruby.network.sankey.vcvn3.vcvn17             0                       (Unspecified)
system.ruby.network.sankey.vcvn3.vcvn2           4040                       (Unspecified)
system.ruby.network.sankey.vcvn3.vcvn3             75                       (Unspecified)
system.ruby.network.sankey.vcvn3.vcvn4           1300                       (Unspecified)
system.ruby.network.sankey.vcvn3.vcvn5          10257                       (Unspecified)
system.ruby.network.sankey.vcvn3.vcvn6              0                       (Unspecified)
system.ruby.network.sankey.vcvn3.vcvn7              0                       (Unspecified)
system.ruby.network.sankey.vcvn3.vcvn8              0                       (Unspecified)
system.ruby.network.sankey.vcvn3.vcvn9              0                       (Unspecified)
system.ruby.network.sankey.vcvn4.vcvn0              0                       (Unspecified)
system.ruby.network.sankey.vcvn4.vcvn1              0                       (Unspecified)
system.ruby.network.sankey.vcvn4.vcvn10             0                       (Unspecified)
system.ruby.network.sankey.vcvn4.vcvn11             0                       (Unspecified)
system.ruby.network.sankey.vcvn4.vcvn12             0                       (Unspecified)
system.ruby.network.sankey.vcvn4.vcvn13             0                       (Unspecified)
system.ruby.network.sankey.vcvn4.vcvn14             0                       (Unspecified)
system.ruby.network.sankey.vcvn4.vcvn15             0                       (Unspecified)
system.ruby.network.sankey.vcvn4.vcvn16             0                       (Unspecified)
system.ruby.network.sankey.vcvn4.vcvn17             0                       (Unspecified)
system.ruby.network.sankey.vcvn4.vcvn2              0                       (Unspecified)
system.ruby.network.sankey.vcvn4.vcvn3              0                       (Unspecified)
system.ruby.network.sankey.vcvn4.vcvn4         709651                       (Unspecified)
system.ruby.network.sankey.vcvn4.vcvn5              0                       (Unspecified)
system.ruby.network.sankey.vcvn4.vcvn6              0                       (Unspecified)
system.ruby.network.sankey.vcvn4.vcvn7              0                       (Unspecified)
system.ruby.network.sankey.vcvn4.vcvn8              0                       (Unspecified)
system.ruby.network.sankey.vcvn4.vcvn9              0                       (Unspecified)
system.ruby.network.sankey.vcvn5.vcvn0              0                       (Unspecified)
system.ruby.network.sankey.vcvn5.vcvn1              0                       (Unspecified)
system.ruby.network.sankey.vcvn5.vcvn10             0                       (Unspecified)
system.ruby.network.sankey.vcvn5.vcvn11             0                       (Unspecified)
system.ruby.network.sankey.vcvn5.vcvn12             0                       (Unspecified)
system.ruby.network.sankey.vcvn5.vcvn13             0                       (Unspecified)
system.ruby.network.sankey.vcvn5.vcvn14             0                       (Unspecified)
system.ruby.network.sankey.vcvn5.vcvn15             0                       (Unspecified)
system.ruby.network.sankey.vcvn5.vcvn16             0                       (Unspecified)
system.ruby.network.sankey.vcvn5.vcvn17             0                       (Unspecified)
system.ruby.network.sankey.vcvn5.vcvn2              0                       (Unspecified)
system.ruby.network.sankey.vcvn5.vcvn3              0                       (Unspecified)
system.ruby.network.sankey.vcvn5.vcvn4              0                       (Unspecified)
system.ruby.network.sankey.vcvn5.vcvn5        2895133                       (Unspecified)
system.ruby.network.sankey.vcvn5.vcvn6              0                       (Unspecified)
system.ruby.network.sankey.vcvn5.vcvn7              0                       (Unspecified)
system.ruby.network.sankey.vcvn5.vcvn8              0                       (Unspecified)
system.ruby.network.sankey.vcvn5.vcvn9              0                       (Unspecified)
system.ruby.network.sankey.vcvn6.vcvn0              0                       (Unspecified)
system.ruby.network.sankey.vcvn6.vcvn1              0                       (Unspecified)
system.ruby.network.sankey.vcvn6.vcvn10             0                       (Unspecified)
system.ruby.network.sankey.vcvn6.vcvn11             0                       (Unspecified)
system.ruby.network.sankey.vcvn6.vcvn12             0                       (Unspecified)
system.ruby.network.sankey.vcvn6.vcvn13             0                       (Unspecified)
system.ruby.network.sankey.vcvn6.vcvn14             0                       (Unspecified)
system.ruby.network.sankey.vcvn6.vcvn15             0                       (Unspecified)
system.ruby.network.sankey.vcvn6.vcvn16             0                       (Unspecified)
system.ruby.network.sankey.vcvn6.vcvn17             0                       (Unspecified)
system.ruby.network.sankey.vcvn6.vcvn2              0                       (Unspecified)
system.ruby.network.sankey.vcvn6.vcvn3              0                       (Unspecified)
system.ruby.network.sankey.vcvn6.vcvn4              0                       (Unspecified)
system.ruby.network.sankey.vcvn6.vcvn5              0                       (Unspecified)
system.ruby.network.sankey.vcvn6.vcvn6              0                       (Unspecified)
system.ruby.network.sankey.vcvn6.vcvn7              0                       (Unspecified)
system.ruby.network.sankey.vcvn6.vcvn8              0                       (Unspecified)
system.ruby.network.sankey.vcvn6.vcvn9              0                       (Unspecified)
system.ruby.network.sankey.vcvn7.vcvn0              0                       (Unspecified)
system.ruby.network.sankey.vcvn7.vcvn1              0                       (Unspecified)
system.ruby.network.sankey.vcvn7.vcvn10             0                       (Unspecified)
system.ruby.network.sankey.vcvn7.vcvn11             0                       (Unspecified)
system.ruby.network.sankey.vcvn7.vcvn12             0                       (Unspecified)
system.ruby.network.sankey.vcvn7.vcvn13             0                       (Unspecified)
system.ruby.network.sankey.vcvn7.vcvn14             0                       (Unspecified)
system.ruby.network.sankey.vcvn7.vcvn15             0                       (Unspecified)
system.ruby.network.sankey.vcvn7.vcvn16             0                       (Unspecified)
system.ruby.network.sankey.vcvn7.vcvn17             0                       (Unspecified)
system.ruby.network.sankey.vcvn7.vcvn2              0                       (Unspecified)
system.ruby.network.sankey.vcvn7.vcvn3              0                       (Unspecified)
system.ruby.network.sankey.vcvn7.vcvn4              0                       (Unspecified)
system.ruby.network.sankey.vcvn7.vcvn5              0                       (Unspecified)
system.ruby.network.sankey.vcvn7.vcvn6              0                       (Unspecified)
system.ruby.network.sankey.vcvn7.vcvn7              0                       (Unspecified)
system.ruby.network.sankey.vcvn7.vcvn8              0                       (Unspecified)
system.ruby.network.sankey.vcvn7.vcvn9              0                       (Unspecified)
system.ruby.network.sankey.vcvn8.vcvn0              0                       (Unspecified)
system.ruby.network.sankey.vcvn8.vcvn1              0                       (Unspecified)
system.ruby.network.sankey.vcvn8.vcvn10             0                       (Unspecified)
system.ruby.network.sankey.vcvn8.vcvn11             0                       (Unspecified)
system.ruby.network.sankey.vcvn8.vcvn12             0                       (Unspecified)
system.ruby.network.sankey.vcvn8.vcvn13             0                       (Unspecified)
system.ruby.network.sankey.vcvn8.vcvn14             0                       (Unspecified)
system.ruby.network.sankey.vcvn8.vcvn15             0                       (Unspecified)
system.ruby.network.sankey.vcvn8.vcvn16             0                       (Unspecified)
system.ruby.network.sankey.vcvn8.vcvn17             0                       (Unspecified)
system.ruby.network.sankey.vcvn8.vcvn2              0                       (Unspecified)
system.ruby.network.sankey.vcvn8.vcvn3              0                       (Unspecified)
system.ruby.network.sankey.vcvn8.vcvn4              0                       (Unspecified)
system.ruby.network.sankey.vcvn8.vcvn5              0                       (Unspecified)
system.ruby.network.sankey.vcvn8.vcvn6              0                       (Unspecified)
system.ruby.network.sankey.vcvn8.vcvn7              0                       (Unspecified)
system.ruby.network.sankey.vcvn8.vcvn8              0                       (Unspecified)
system.ruby.network.sankey.vcvn8.vcvn9              0                       (Unspecified)
system.ruby.network.sankey.vcvn9.vcvn0              0                       (Unspecified)
system.ruby.network.sankey.vcvn9.vcvn1              0                       (Unspecified)
system.ruby.network.sankey.vcvn9.vcvn10             0                       (Unspecified)
system.ruby.network.sankey.vcvn9.vcvn11             0                       (Unspecified)
system.ruby.network.sankey.vcvn9.vcvn12             0                       (Unspecified)
system.ruby.network.sankey.vcvn9.vcvn13             0                       (Unspecified)
system.ruby.network.sankey.vcvn9.vcvn14             0                       (Unspecified)
system.ruby.network.sankey.vcvn9.vcvn15             0                       (Unspecified)
system.ruby.network.sankey.vcvn9.vcvn16             0                       (Unspecified)
system.ruby.network.sankey.vcvn9.vcvn17             0                       (Unspecified)
system.ruby.network.sankey.vcvn9.vcvn2              0                       (Unspecified)
system.ruby.network.sankey.vcvn9.vcvn3              0                       (Unspecified)
system.ruby.network.sankey.vcvn9.vcvn4              0                       (Unspecified)
system.ruby.network.sankey.vcvn9.vcvn5              0                       (Unspecified)
system.ruby.network.sankey.vcvn9.vcvn6              0                       (Unspecified)
system.ruby.network.sankey.vcvn9.vcvn7              0                       (Unspecified)
system.ruby.network.sankey.vcvn9.vcvn8              0                       (Unspecified)
system.ruby.network.sankey.vcvn9.vcvn9              0                       (Unspecified)

---------- End Simulation Statistics   ----------
