
---------- Begin Simulation Statistics ----------
simSeconds                                   0.002147                       # Number of seconds simulated (Second)
simTicks                                   2147483750                       # Number of ticks simulated (Tick)
finalTick                                  2147483750                       # Number of ticks from beginning of simulation (restored from checkpoints and never reset) (Tick)
simFreq                                  1000000000000                       # The number of ticks per simulated second ((Tick/Second))
hostSeconds                                   1956.36                       # Real time elapsed on the host (Second)
hostTickRate                                  1097692                       # The number of ticks simulated per host second (ticks/s) ((Tick/Second))
hostMemory                                     792608                       # Number of bytes of host memory used (Byte)
system.clk_domain.clock                           250                       # Clock period in ticks (Tick)
system.cpu0.power_state.pwrStateResidencyTicks::UNDEFINED   2147483750                       # Cumulative time (in ticks) in various power states (Tick)
system.cpu1.power_state.pwrStateResidencyTicks::UNDEFINED   2147483750                       # Cumulative time (in ticks) in various power states (Tick)
system.cpu10.power_state.pwrStateResidencyTicks::UNDEFINED   2147483750                       # Cumulative time (in ticks) in various power states (Tick)
system.cpu11.power_state.pwrStateResidencyTicks::UNDEFINED   2147483750                       # Cumulative time (in ticks) in various power states (Tick)
system.cpu12.power_state.pwrStateResidencyTicks::UNDEFINED   2147483750                       # Cumulative time (in ticks) in various power states (Tick)
system.cpu13.power_state.pwrStateResidencyTicks::UNDEFINED   2147483750                       # Cumulative time (in ticks) in various power states (Tick)
system.cpu14.power_state.pwrStateResidencyTicks::UNDEFINED   2147483750                       # Cumulative time (in ticks) in various power states (Tick)
system.cpu15.power_state.pwrStateResidencyTicks::UNDEFINED   2147483750                       # Cumulative time (in ticks) in various power states (Tick)
system.cpu16.power_state.pwrStateResidencyTicks::UNDEFINED   2147483750                       # Cumulative time (in ticks) in various power states (Tick)
system.cpu17.power_state.pwrStateResidencyTicks::UNDEFINED   2147483750                       # Cumulative time (in ticks) in various power states (Tick)
system.cpu18.power_state.pwrStateResidencyTicks::UNDEFINED   2147483750                       # Cumulative time (in ticks) in various power states (Tick)
system.cpu19.power_state.pwrStateResidencyTicks::UNDEFINED   2147483750                       # Cumulative time (in ticks) in various power states (Tick)
system.cpu2.power_state.pwrStateResidencyTicks::UNDEFINED   2147483750                       # Cumulative time (in ticks) in various power states (Tick)
system.cpu20.power_state.pwrStateResidencyTicks::UNDEFINED   2147483750                       # Cumulative time (in ticks) in various power states (Tick)
system.cpu21.power_state.pwrStateResidencyTicks::UNDEFINED   2147483750                       # Cumulative time (in ticks) in various power states (Tick)
system.cpu22.power_state.pwrStateResidencyTicks::UNDEFINED   2147483750                       # Cumulative time (in ticks) in various power states (Tick)
system.cpu23.power_state.pwrStateResidencyTicks::UNDEFINED   2147483750                       # Cumulative time (in ticks) in various power states (Tick)
system.cpu24.power_state.pwrStateResidencyTicks::UNDEFINED   2147483750                       # Cumulative time (in ticks) in various power states (Tick)
system.cpu25.power_state.pwrStateResidencyTicks::UNDEFINED   2147483750                       # Cumulative time (in ticks) in various power states (Tick)
system.cpu26.power_state.pwrStateResidencyTicks::UNDEFINED   2147483750                       # Cumulative time (in ticks) in various power states (Tick)
system.cpu27.power_state.pwrStateResidencyTicks::UNDEFINED   2147483750                       # Cumulative time (in ticks) in various power states (Tick)
system.cpu28.power_state.pwrStateResidencyTicks::UNDEFINED   2147483750                       # Cumulative time (in ticks) in various power states (Tick)
system.cpu29.power_state.pwrStateResidencyTicks::UNDEFINED   2147483750                       # Cumulative time (in ticks) in various power states (Tick)
system.cpu3.power_state.pwrStateResidencyTicks::UNDEFINED   2147483750                       # Cumulative time (in ticks) in various power states (Tick)
system.cpu30.power_state.pwrStateResidencyTicks::UNDEFINED   2147483750                       # Cumulative time (in ticks) in various power states (Tick)
system.cpu31.power_state.pwrStateResidencyTicks::UNDEFINED   2147483750                       # Cumulative time (in ticks) in various power states (Tick)
system.cpu32.power_state.pwrStateResidencyTicks::UNDEFINED   2147483750                       # Cumulative time (in ticks) in various power states (Tick)
system.cpu33.power_state.pwrStateResidencyTicks::UNDEFINED   2147483750                       # Cumulative time (in ticks) in various power states (Tick)
system.cpu34.power_state.pwrStateResidencyTicks::UNDEFINED   2147483750                       # Cumulative time (in ticks) in various power states (Tick)
system.cpu35.power_state.pwrStateResidencyTicks::UNDEFINED   2147483750                       # Cumulative time (in ticks) in various power states (Tick)
system.cpu36.power_state.pwrStateResidencyTicks::UNDEFINED   2147483750                       # Cumulative time (in ticks) in various power states (Tick)
system.cpu37.power_state.pwrStateResidencyTicks::UNDEFINED   2147483750                       # Cumulative time (in ticks) in various power states (Tick)
system.cpu38.power_state.pwrStateResidencyTicks::UNDEFINED   2147483750                       # Cumulative time (in ticks) in various power states (Tick)
system.cpu39.power_state.pwrStateResidencyTicks::UNDEFINED   2147483750                       # Cumulative time (in ticks) in various power states (Tick)
system.cpu4.power_state.pwrStateResidencyTicks::UNDEFINED   2147483750                       # Cumulative time (in ticks) in various power states (Tick)
system.cpu5.power_state.pwrStateResidencyTicks::UNDEFINED   2147483750                       # Cumulative time (in ticks) in various power states (Tick)
system.cpu6.power_state.pwrStateResidencyTicks::UNDEFINED   2147483750                       # Cumulative time (in ticks) in various power states (Tick)
system.cpu7.power_state.pwrStateResidencyTicks::UNDEFINED   2147483750                       # Cumulative time (in ticks) in various power states (Tick)
system.cpu8.power_state.pwrStateResidencyTicks::UNDEFINED   2147483750                       # Cumulative time (in ticks) in various power states (Tick)
system.cpu9.power_state.pwrStateResidencyTicks::UNDEFINED   2147483750                       # Cumulative time (in ticks) in various power states (Tick)
system.mem_ctrls0.power_state.pwrStateResidencyTicks::UNDEFINED   2147483750                       # Cumulative time (in ticks) in various power states (Tick)
system.mem_ctrls1.power_state.pwrStateResidencyTicks::UNDEFINED   2147483750                       # Cumulative time (in ticks) in various power states (Tick)
system.mem_ctrls10.power_state.pwrStateResidencyTicks::UNDEFINED   2147483750                       # Cumulative time (in ticks) in various power states (Tick)
system.mem_ctrls100.power_state.pwrStateResidencyTicks::UNDEFINED   2147483750                       # Cumulative time (in ticks) in various power states (Tick)
system.mem_ctrls101.power_state.pwrStateResidencyTicks::UNDEFINED   2147483750                       # Cumulative time (in ticks) in various power states (Tick)
system.mem_ctrls102.power_state.pwrStateResidencyTicks::UNDEFINED   2147483750                       # Cumulative time (in ticks) in various power states (Tick)
system.mem_ctrls103.power_state.pwrStateResidencyTicks::UNDEFINED   2147483750                       # Cumulative time (in ticks) in various power states (Tick)
system.mem_ctrls104.power_state.pwrStateResidencyTicks::UNDEFINED   2147483750                       # Cumulative time (in ticks) in various power states (Tick)
system.mem_ctrls105.power_state.pwrStateResidencyTicks::UNDEFINED   2147483750                       # Cumulative time (in ticks) in various power states (Tick)
system.mem_ctrls106.power_state.pwrStateResidencyTicks::UNDEFINED   2147483750                       # Cumulative time (in ticks) in various power states (Tick)
system.mem_ctrls107.power_state.pwrStateResidencyTicks::UNDEFINED   2147483750                       # Cumulative time (in ticks) in various power states (Tick)
system.mem_ctrls108.power_state.pwrStateResidencyTicks::UNDEFINED   2147483750                       # Cumulative time (in ticks) in various power states (Tick)
system.mem_ctrls109.power_state.pwrStateResidencyTicks::UNDEFINED   2147483750                       # Cumulative time (in ticks) in various power states (Tick)
system.mem_ctrls11.power_state.pwrStateResidencyTicks::UNDEFINED   2147483750                       # Cumulative time (in ticks) in various power states (Tick)
system.mem_ctrls110.power_state.pwrStateResidencyTicks::UNDEFINED   2147483750                       # Cumulative time (in ticks) in various power states (Tick)
system.mem_ctrls111.power_state.pwrStateResidencyTicks::UNDEFINED   2147483750                       # Cumulative time (in ticks) in various power states (Tick)
system.mem_ctrls112.power_state.pwrStateResidencyTicks::UNDEFINED   2147483750                       # Cumulative time (in ticks) in various power states (Tick)
system.mem_ctrls113.power_state.pwrStateResidencyTicks::UNDEFINED   2147483750                       # Cumulative time (in ticks) in various power states (Tick)
system.mem_ctrls114.power_state.pwrStateResidencyTicks::UNDEFINED   2147483750                       # Cumulative time (in ticks) in various power states (Tick)
system.mem_ctrls115.power_state.pwrStateResidencyTicks::UNDEFINED   2147483750                       # Cumulative time (in ticks) in various power states (Tick)
system.mem_ctrls116.power_state.pwrStateResidencyTicks::UNDEFINED   2147483750                       # Cumulative time (in ticks) in various power states (Tick)
system.mem_ctrls117.power_state.pwrStateResidencyTicks::UNDEFINED   2147483750                       # Cumulative time (in ticks) in various power states (Tick)
system.mem_ctrls118.power_state.pwrStateResidencyTicks::UNDEFINED   2147483750                       # Cumulative time (in ticks) in various power states (Tick)
system.mem_ctrls119.power_state.pwrStateResidencyTicks::UNDEFINED   2147483750                       # Cumulative time (in ticks) in various power states (Tick)
system.mem_ctrls12.power_state.pwrStateResidencyTicks::UNDEFINED   2147483750                       # Cumulative time (in ticks) in various power states (Tick)
system.mem_ctrls120.power_state.pwrStateResidencyTicks::UNDEFINED   2147483750                       # Cumulative time (in ticks) in various power states (Tick)
system.mem_ctrls121.power_state.pwrStateResidencyTicks::UNDEFINED   2147483750                       # Cumulative time (in ticks) in various power states (Tick)
system.mem_ctrls122.power_state.pwrStateResidencyTicks::UNDEFINED   2147483750                       # Cumulative time (in ticks) in various power states (Tick)
system.mem_ctrls123.power_state.pwrStateResidencyTicks::UNDEFINED   2147483750                       # Cumulative time (in ticks) in various power states (Tick)
system.mem_ctrls124.power_state.pwrStateResidencyTicks::UNDEFINED   2147483750                       # Cumulative time (in ticks) in various power states (Tick)
system.mem_ctrls125.power_state.pwrStateResidencyTicks::UNDEFINED   2147483750                       # Cumulative time (in ticks) in various power states (Tick)
system.mem_ctrls126.power_state.pwrStateResidencyTicks::UNDEFINED   2147483750                       # Cumulative time (in ticks) in various power states (Tick)
system.mem_ctrls127.power_state.pwrStateResidencyTicks::UNDEFINED   2147483750                       # Cumulative time (in ticks) in various power states (Tick)
system.mem_ctrls128.power_state.pwrStateResidencyTicks::UNDEFINED   2147483750                       # Cumulative time (in ticks) in various power states (Tick)
system.mem_ctrls129.power_state.pwrStateResidencyTicks::UNDEFINED   2147483750                       # Cumulative time (in ticks) in various power states (Tick)
system.mem_ctrls13.power_state.pwrStateResidencyTicks::UNDEFINED   2147483750                       # Cumulative time (in ticks) in various power states (Tick)
system.mem_ctrls130.power_state.pwrStateResidencyTicks::UNDEFINED   2147483750                       # Cumulative time (in ticks) in various power states (Tick)
system.mem_ctrls131.power_state.pwrStateResidencyTicks::UNDEFINED   2147483750                       # Cumulative time (in ticks) in various power states (Tick)
system.mem_ctrls132.power_state.pwrStateResidencyTicks::UNDEFINED   2147483750                       # Cumulative time (in ticks) in various power states (Tick)
system.mem_ctrls133.power_state.pwrStateResidencyTicks::UNDEFINED   2147483750                       # Cumulative time (in ticks) in various power states (Tick)
system.mem_ctrls134.power_state.pwrStateResidencyTicks::UNDEFINED   2147483750                       # Cumulative time (in ticks) in various power states (Tick)
system.mem_ctrls135.power_state.pwrStateResidencyTicks::UNDEFINED   2147483750                       # Cumulative time (in ticks) in various power states (Tick)
system.mem_ctrls136.power_state.pwrStateResidencyTicks::UNDEFINED   2147483750                       # Cumulative time (in ticks) in various power states (Tick)
system.mem_ctrls137.power_state.pwrStateResidencyTicks::UNDEFINED   2147483750                       # Cumulative time (in ticks) in various power states (Tick)
system.mem_ctrls138.power_state.pwrStateResidencyTicks::UNDEFINED   2147483750                       # Cumulative time (in ticks) in various power states (Tick)
system.mem_ctrls139.power_state.pwrStateResidencyTicks::UNDEFINED   2147483750                       # Cumulative time (in ticks) in various power states (Tick)
system.mem_ctrls14.power_state.pwrStateResidencyTicks::UNDEFINED   2147483750                       # Cumulative time (in ticks) in various power states (Tick)
system.mem_ctrls140.power_state.pwrStateResidencyTicks::UNDEFINED   2147483750                       # Cumulative time (in ticks) in various power states (Tick)
system.mem_ctrls141.power_state.pwrStateResidencyTicks::UNDEFINED   2147483750                       # Cumulative time (in ticks) in various power states (Tick)
system.mem_ctrls142.power_state.pwrStateResidencyTicks::UNDEFINED   2147483750                       # Cumulative time (in ticks) in various power states (Tick)
system.mem_ctrls143.power_state.pwrStateResidencyTicks::UNDEFINED   2147483750                       # Cumulative time (in ticks) in various power states (Tick)
system.mem_ctrls144.power_state.pwrStateResidencyTicks::UNDEFINED   2147483750                       # Cumulative time (in ticks) in various power states (Tick)
system.mem_ctrls145.power_state.pwrStateResidencyTicks::UNDEFINED   2147483750                       # Cumulative time (in ticks) in various power states (Tick)
system.mem_ctrls146.power_state.pwrStateResidencyTicks::UNDEFINED   2147483750                       # Cumulative time (in ticks) in various power states (Tick)
system.mem_ctrls147.power_state.pwrStateResidencyTicks::UNDEFINED   2147483750                       # Cumulative time (in ticks) in various power states (Tick)
system.mem_ctrls148.power_state.pwrStateResidencyTicks::UNDEFINED   2147483750                       # Cumulative time (in ticks) in various power states (Tick)
system.mem_ctrls149.power_state.pwrStateResidencyTicks::UNDEFINED   2147483750                       # Cumulative time (in ticks) in various power states (Tick)
system.mem_ctrls15.power_state.pwrStateResidencyTicks::UNDEFINED   2147483750                       # Cumulative time (in ticks) in various power states (Tick)
system.mem_ctrls150.power_state.pwrStateResidencyTicks::UNDEFINED   2147483750                       # Cumulative time (in ticks) in various power states (Tick)
system.mem_ctrls151.power_state.pwrStateResidencyTicks::UNDEFINED   2147483750                       # Cumulative time (in ticks) in various power states (Tick)
system.mem_ctrls152.power_state.pwrStateResidencyTicks::UNDEFINED   2147483750                       # Cumulative time (in ticks) in various power states (Tick)
system.mem_ctrls153.power_state.pwrStateResidencyTicks::UNDEFINED   2147483750                       # Cumulative time (in ticks) in various power states (Tick)
system.mem_ctrls154.power_state.pwrStateResidencyTicks::UNDEFINED   2147483750                       # Cumulative time (in ticks) in various power states (Tick)
system.mem_ctrls155.power_state.pwrStateResidencyTicks::UNDEFINED   2147483750                       # Cumulative time (in ticks) in various power states (Tick)
system.mem_ctrls156.power_state.pwrStateResidencyTicks::UNDEFINED   2147483750                       # Cumulative time (in ticks) in various power states (Tick)
system.mem_ctrls157.power_state.pwrStateResidencyTicks::UNDEFINED   2147483750                       # Cumulative time (in ticks) in various power states (Tick)
system.mem_ctrls158.power_state.pwrStateResidencyTicks::UNDEFINED   2147483750                       # Cumulative time (in ticks) in various power states (Tick)
system.mem_ctrls159.power_state.pwrStateResidencyTicks::UNDEFINED   2147483750                       # Cumulative time (in ticks) in various power states (Tick)
system.mem_ctrls16.power_state.pwrStateResidencyTicks::UNDEFINED   2147483750                       # Cumulative time (in ticks) in various power states (Tick)
system.mem_ctrls17.power_state.pwrStateResidencyTicks::UNDEFINED   2147483750                       # Cumulative time (in ticks) in various power states (Tick)
system.mem_ctrls18.power_state.pwrStateResidencyTicks::UNDEFINED   2147483750                       # Cumulative time (in ticks) in various power states (Tick)
system.mem_ctrls19.power_state.pwrStateResidencyTicks::UNDEFINED   2147483750                       # Cumulative time (in ticks) in various power states (Tick)
system.mem_ctrls2.power_state.pwrStateResidencyTicks::UNDEFINED   2147483750                       # Cumulative time (in ticks) in various power states (Tick)
system.mem_ctrls20.power_state.pwrStateResidencyTicks::UNDEFINED   2147483750                       # Cumulative time (in ticks) in various power states (Tick)
system.mem_ctrls21.power_state.pwrStateResidencyTicks::UNDEFINED   2147483750                       # Cumulative time (in ticks) in various power states (Tick)
system.mem_ctrls22.power_state.pwrStateResidencyTicks::UNDEFINED   2147483750                       # Cumulative time (in ticks) in various power states (Tick)
system.mem_ctrls23.power_state.pwrStateResidencyTicks::UNDEFINED   2147483750                       # Cumulative time (in ticks) in various power states (Tick)
system.mem_ctrls24.power_state.pwrStateResidencyTicks::UNDEFINED   2147483750                       # Cumulative time (in ticks) in various power states (Tick)
system.mem_ctrls25.power_state.pwrStateResidencyTicks::UNDEFINED   2147483750                       # Cumulative time (in ticks) in various power states (Tick)
system.mem_ctrls26.power_state.pwrStateResidencyTicks::UNDEFINED   2147483750                       # Cumulative time (in ticks) in various power states (Tick)
system.mem_ctrls27.power_state.pwrStateResidencyTicks::UNDEFINED   2147483750                       # Cumulative time (in ticks) in various power states (Tick)
system.mem_ctrls28.power_state.pwrStateResidencyTicks::UNDEFINED   2147483750                       # Cumulative time (in ticks) in various power states (Tick)
system.mem_ctrls29.power_state.pwrStateResidencyTicks::UNDEFINED   2147483750                       # Cumulative time (in ticks) in various power states (Tick)
system.mem_ctrls3.power_state.pwrStateResidencyTicks::UNDEFINED   2147483750                       # Cumulative time (in ticks) in various power states (Tick)
system.mem_ctrls30.power_state.pwrStateResidencyTicks::UNDEFINED   2147483750                       # Cumulative time (in ticks) in various power states (Tick)
system.mem_ctrls31.power_state.pwrStateResidencyTicks::UNDEFINED   2147483750                       # Cumulative time (in ticks) in various power states (Tick)
system.mem_ctrls32.power_state.pwrStateResidencyTicks::UNDEFINED   2147483750                       # Cumulative time (in ticks) in various power states (Tick)
system.mem_ctrls33.power_state.pwrStateResidencyTicks::UNDEFINED   2147483750                       # Cumulative time (in ticks) in various power states (Tick)
system.mem_ctrls34.power_state.pwrStateResidencyTicks::UNDEFINED   2147483750                       # Cumulative time (in ticks) in various power states (Tick)
system.mem_ctrls35.power_state.pwrStateResidencyTicks::UNDEFINED   2147483750                       # Cumulative time (in ticks) in various power states (Tick)
system.mem_ctrls36.power_state.pwrStateResidencyTicks::UNDEFINED   2147483750                       # Cumulative time (in ticks) in various power states (Tick)
system.mem_ctrls37.power_state.pwrStateResidencyTicks::UNDEFINED   2147483750                       # Cumulative time (in ticks) in various power states (Tick)
system.mem_ctrls38.power_state.pwrStateResidencyTicks::UNDEFINED   2147483750                       # Cumulative time (in ticks) in various power states (Tick)
system.mem_ctrls39.power_state.pwrStateResidencyTicks::UNDEFINED   2147483750                       # Cumulative time (in ticks) in various power states (Tick)
system.mem_ctrls4.power_state.pwrStateResidencyTicks::UNDEFINED   2147483750                       # Cumulative time (in ticks) in various power states (Tick)
system.mem_ctrls40.power_state.pwrStateResidencyTicks::UNDEFINED   2147483750                       # Cumulative time (in ticks) in various power states (Tick)
system.mem_ctrls41.power_state.pwrStateResidencyTicks::UNDEFINED   2147483750                       # Cumulative time (in ticks) in various power states (Tick)
system.mem_ctrls42.power_state.pwrStateResidencyTicks::UNDEFINED   2147483750                       # Cumulative time (in ticks) in various power states (Tick)
system.mem_ctrls43.power_state.pwrStateResidencyTicks::UNDEFINED   2147483750                       # Cumulative time (in ticks) in various power states (Tick)
system.mem_ctrls44.power_state.pwrStateResidencyTicks::UNDEFINED   2147483750                       # Cumulative time (in ticks) in various power states (Tick)
system.mem_ctrls45.power_state.pwrStateResidencyTicks::UNDEFINED   2147483750                       # Cumulative time (in ticks) in various power states (Tick)
system.mem_ctrls46.power_state.pwrStateResidencyTicks::UNDEFINED   2147483750                       # Cumulative time (in ticks) in various power states (Tick)
system.mem_ctrls47.power_state.pwrStateResidencyTicks::UNDEFINED   2147483750                       # Cumulative time (in ticks) in various power states (Tick)
system.mem_ctrls48.power_state.pwrStateResidencyTicks::UNDEFINED   2147483750                       # Cumulative time (in ticks) in various power states (Tick)
system.mem_ctrls49.power_state.pwrStateResidencyTicks::UNDEFINED   2147483750                       # Cumulative time (in ticks) in various power states (Tick)
system.mem_ctrls5.power_state.pwrStateResidencyTicks::UNDEFINED   2147483750                       # Cumulative time (in ticks) in various power states (Tick)
system.mem_ctrls50.power_state.pwrStateResidencyTicks::UNDEFINED   2147483750                       # Cumulative time (in ticks) in various power states (Tick)
system.mem_ctrls51.power_state.pwrStateResidencyTicks::UNDEFINED   2147483750                       # Cumulative time (in ticks) in various power states (Tick)
system.mem_ctrls52.power_state.pwrStateResidencyTicks::UNDEFINED   2147483750                       # Cumulative time (in ticks) in various power states (Tick)
system.mem_ctrls53.power_state.pwrStateResidencyTicks::UNDEFINED   2147483750                       # Cumulative time (in ticks) in various power states (Tick)
system.mem_ctrls54.power_state.pwrStateResidencyTicks::UNDEFINED   2147483750                       # Cumulative time (in ticks) in various power states (Tick)
system.mem_ctrls55.power_state.pwrStateResidencyTicks::UNDEFINED   2147483750                       # Cumulative time (in ticks) in various power states (Tick)
system.mem_ctrls56.power_state.pwrStateResidencyTicks::UNDEFINED   2147483750                       # Cumulative time (in ticks) in various power states (Tick)
system.mem_ctrls57.power_state.pwrStateResidencyTicks::UNDEFINED   2147483750                       # Cumulative time (in ticks) in various power states (Tick)
system.mem_ctrls58.power_state.pwrStateResidencyTicks::UNDEFINED   2147483750                       # Cumulative time (in ticks) in various power states (Tick)
system.mem_ctrls59.power_state.pwrStateResidencyTicks::UNDEFINED   2147483750                       # Cumulative time (in ticks) in various power states (Tick)
system.mem_ctrls6.power_state.pwrStateResidencyTicks::UNDEFINED   2147483750                       # Cumulative time (in ticks) in various power states (Tick)
system.mem_ctrls60.power_state.pwrStateResidencyTicks::UNDEFINED   2147483750                       # Cumulative time (in ticks) in various power states (Tick)
system.mem_ctrls61.power_state.pwrStateResidencyTicks::UNDEFINED   2147483750                       # Cumulative time (in ticks) in various power states (Tick)
system.mem_ctrls62.power_state.pwrStateResidencyTicks::UNDEFINED   2147483750                       # Cumulative time (in ticks) in various power states (Tick)
system.mem_ctrls63.power_state.pwrStateResidencyTicks::UNDEFINED   2147483750                       # Cumulative time (in ticks) in various power states (Tick)
system.mem_ctrls64.power_state.pwrStateResidencyTicks::UNDEFINED   2147483750                       # Cumulative time (in ticks) in various power states (Tick)
system.mem_ctrls65.power_state.pwrStateResidencyTicks::UNDEFINED   2147483750                       # Cumulative time (in ticks) in various power states (Tick)
system.mem_ctrls66.power_state.pwrStateResidencyTicks::UNDEFINED   2147483750                       # Cumulative time (in ticks) in various power states (Tick)
system.mem_ctrls67.power_state.pwrStateResidencyTicks::UNDEFINED   2147483750                       # Cumulative time (in ticks) in various power states (Tick)
system.mem_ctrls68.power_state.pwrStateResidencyTicks::UNDEFINED   2147483750                       # Cumulative time (in ticks) in various power states (Tick)
system.mem_ctrls69.power_state.pwrStateResidencyTicks::UNDEFINED   2147483750                       # Cumulative time (in ticks) in various power states (Tick)
system.mem_ctrls7.power_state.pwrStateResidencyTicks::UNDEFINED   2147483750                       # Cumulative time (in ticks) in various power states (Tick)
system.mem_ctrls70.power_state.pwrStateResidencyTicks::UNDEFINED   2147483750                       # Cumulative time (in ticks) in various power states (Tick)
system.mem_ctrls71.power_state.pwrStateResidencyTicks::UNDEFINED   2147483750                       # Cumulative time (in ticks) in various power states (Tick)
system.mem_ctrls72.power_state.pwrStateResidencyTicks::UNDEFINED   2147483750                       # Cumulative time (in ticks) in various power states (Tick)
system.mem_ctrls73.power_state.pwrStateResidencyTicks::UNDEFINED   2147483750                       # Cumulative time (in ticks) in various power states (Tick)
system.mem_ctrls74.power_state.pwrStateResidencyTicks::UNDEFINED   2147483750                       # Cumulative time (in ticks) in various power states (Tick)
system.mem_ctrls75.power_state.pwrStateResidencyTicks::UNDEFINED   2147483750                       # Cumulative time (in ticks) in various power states (Tick)
system.mem_ctrls76.power_state.pwrStateResidencyTicks::UNDEFINED   2147483750                       # Cumulative time (in ticks) in various power states (Tick)
system.mem_ctrls77.power_state.pwrStateResidencyTicks::UNDEFINED   2147483750                       # Cumulative time (in ticks) in various power states (Tick)
system.mem_ctrls78.power_state.pwrStateResidencyTicks::UNDEFINED   2147483750                       # Cumulative time (in ticks) in various power states (Tick)
system.mem_ctrls79.power_state.pwrStateResidencyTicks::UNDEFINED   2147483750                       # Cumulative time (in ticks) in various power states (Tick)
system.mem_ctrls8.power_state.pwrStateResidencyTicks::UNDEFINED   2147483750                       # Cumulative time (in ticks) in various power states (Tick)
system.mem_ctrls80.power_state.pwrStateResidencyTicks::UNDEFINED   2147483750                       # Cumulative time (in ticks) in various power states (Tick)
system.mem_ctrls81.power_state.pwrStateResidencyTicks::UNDEFINED   2147483750                       # Cumulative time (in ticks) in various power states (Tick)
system.mem_ctrls82.power_state.pwrStateResidencyTicks::UNDEFINED   2147483750                       # Cumulative time (in ticks) in various power states (Tick)
system.mem_ctrls83.power_state.pwrStateResidencyTicks::UNDEFINED   2147483750                       # Cumulative time (in ticks) in various power states (Tick)
system.mem_ctrls84.power_state.pwrStateResidencyTicks::UNDEFINED   2147483750                       # Cumulative time (in ticks) in various power states (Tick)
system.mem_ctrls85.power_state.pwrStateResidencyTicks::UNDEFINED   2147483750                       # Cumulative time (in ticks) in various power states (Tick)
system.mem_ctrls86.power_state.pwrStateResidencyTicks::UNDEFINED   2147483750                       # Cumulative time (in ticks) in various power states (Tick)
system.mem_ctrls87.power_state.pwrStateResidencyTicks::UNDEFINED   2147483750                       # Cumulative time (in ticks) in various power states (Tick)
system.mem_ctrls88.power_state.pwrStateResidencyTicks::UNDEFINED   2147483750                       # Cumulative time (in ticks) in various power states (Tick)
system.mem_ctrls89.power_state.pwrStateResidencyTicks::UNDEFINED   2147483750                       # Cumulative time (in ticks) in various power states (Tick)
system.mem_ctrls9.power_state.pwrStateResidencyTicks::UNDEFINED   2147483750                       # Cumulative time (in ticks) in various power states (Tick)
system.mem_ctrls90.power_state.pwrStateResidencyTicks::UNDEFINED   2147483750                       # Cumulative time (in ticks) in various power states (Tick)
system.mem_ctrls91.power_state.pwrStateResidencyTicks::UNDEFINED   2147483750                       # Cumulative time (in ticks) in various power states (Tick)
system.mem_ctrls92.power_state.pwrStateResidencyTicks::UNDEFINED   2147483750                       # Cumulative time (in ticks) in various power states (Tick)
system.mem_ctrls93.power_state.pwrStateResidencyTicks::UNDEFINED   2147483750                       # Cumulative time (in ticks) in various power states (Tick)
system.mem_ctrls94.power_state.pwrStateResidencyTicks::UNDEFINED   2147483750                       # Cumulative time (in ticks) in various power states (Tick)
system.mem_ctrls95.power_state.pwrStateResidencyTicks::UNDEFINED   2147483750                       # Cumulative time (in ticks) in various power states (Tick)
system.mem_ctrls96.power_state.pwrStateResidencyTicks::UNDEFINED   2147483750                       # Cumulative time (in ticks) in various power states (Tick)
system.mem_ctrls97.power_state.pwrStateResidencyTicks::UNDEFINED   2147483750                       # Cumulative time (in ticks) in various power states (Tick)
system.mem_ctrls98.power_state.pwrStateResidencyTicks::UNDEFINED   2147483750                       # Cumulative time (in ticks) in various power states (Tick)
system.mem_ctrls99.power_state.pwrStateResidencyTicks::UNDEFINED   2147483750                       # Cumulative time (in ticks) in various power states (Tick)
system.ruby.m_outstandReqHistSeqr::bucket_size            1                       (Unspecified)
system.ruby.m_outstandReqHistSeqr::max_bucket            9                       (Unspecified)
system.ruby.m_outstandReqHistSeqr::samples     12013498                       (Unspecified)
system.ruby.m_outstandReqHistSeqr::mean             1                       (Unspecified)
system.ruby.m_outstandReqHistSeqr::gmean            1                       (Unspecified)
system.ruby.m_outstandReqHistSeqr        |           0      0.00%      0.00% |    12013498    100.00%    100.00% |           0      0.00%    100.00% |           0      0.00%    100.00% |           0      0.00%    100.00% |           0      0.00%    100.00% |           0      0.00%    100.00% |           0      0.00%    100.00% |           0      0.00%    100.00% |           0      0.00%    100.00% (Unspecified)
system.ruby.m_outstandReqHistSeqr::total     12013498                       (Unspecified)
system.ruby.m_latencyHistSeqr::bucket_size            1                       (Unspecified)
system.ruby.m_latencyHistSeqr::max_bucket            9                       (Unspecified)
system.ruby.m_latencyHistSeqr::samples       12013496                       (Unspecified)
system.ruby.m_latencyHistSeqr::mean                 1                       (Unspecified)
system.ruby.m_latencyHistSeqr::gmean                1                       (Unspecified)
system.ruby.m_latencyHistSeqr            |           0      0.00%      0.00% |    12013496    100.00%    100.00% |           0      0.00%    100.00% |           0      0.00%    100.00% |           0      0.00%    100.00% |           0      0.00%    100.00% |           0      0.00%    100.00% |           0      0.00%    100.00% |           0      0.00%    100.00% |           0      0.00%    100.00% (Unspecified)
system.ruby.m_latencyHistSeqr::total         12013496                       (Unspecified)
system.ruby.m_hitLatencyHistSeqr::bucket_size            1                       (Unspecified)
system.ruby.m_hitLatencyHistSeqr::max_bucket            9                       (Unspecified)
system.ruby.m_hitLatencyHistSeqr::samples     12013496                       (Unspecified)
system.ruby.m_hitLatencyHistSeqr::mean              1                       (Unspecified)
system.ruby.m_hitLatencyHistSeqr::gmean             1                       (Unspecified)
system.ruby.m_hitLatencyHistSeqr         |           0      0.00%      0.00% |    12013496    100.00%    100.00% |           0      0.00%    100.00% |           0      0.00%    100.00% |           0      0.00%    100.00% |           0      0.00%    100.00% |           0      0.00%    100.00% |           0      0.00%    100.00% |           0      0.00%    100.00% |           0      0.00%    100.00% (Unspecified)
system.ruby.m_hitLatencyHistSeqr::total      12013496                       (Unspecified)
system.ruby.Directory_Controller.Receive_Request |       37468      0.62%      0.62% |       37478      0.62%      1.25% |       37753      0.63%      1.88% |       37569      0.63%      2.50% |       37492      0.62%      3.13% |       37725      0.63%      3.75% |       37375      0.62%      4.38% |       37665      0.63%      5.00% |       37778      0.63%      5.63% |       37501      0.62%      6.26% |       37206      0.62%      6.87% |       37370      0.62%      7.50% |       37519      0.62%      8.12% |       37432      0.62%      8.74% |       37417      0.62%      9.37% |       37581      0.63%      9.99% |       37671      0.63%     10.62% |       37598      0.63%     11.25% |       37667      0.63%     11.87% |       37422      0.62%     12.50% |       37772      0.63%     13.12% |       37526      0.62%     13.75% |       37687      0.63%     14.38% |       37431      0.62%     15.00% |       37349      0.62%     15.62% |       37457      0.62%     16.24% |       37622      0.63%     16.87% |       37931      0.63%     17.50% |       37745      0.63%     18.13% |       37648      0.63%     18.76% |       37503      0.62%     19.38% |       37652      0.63%     20.01% |       37696      0.63%     20.64% |       37524      0.62%     21.26% |       37420      0.62%     21.88% |       37555      0.63%     22.51% |       37455      0.62%     23.13% |       37666      0.63%     23.76% |       37231      0.62%     24.38% |       37454      0.62%     25.00% |       37650      0.63%     25.63% |       37672      0.63%     26.26% |       37433      0.62%     26.88% |       37579      0.63%     27.50% |       37479      0.62%     28.13% |       37520      0.62%     28.75% |       37572      0.63%     29.38% |       37474      0.62%     30.00% |       37792      0.63%     30.63% |       37673      0.63%     31.26% |       37493      0.62%     31.88% |       37661      0.63%     32.51% |       37482      0.62%     33.13% |       37785      0.63%     33.76% |       37429      0.62%     34.39% |       37497      0.62%     35.01% |       37244      0.62%     35.63% |       37459      0.62%     36.25% |       37435      0.62%     36.88% |       37353      0.62%     37.50% |       37833      0.63%     38.13% |       37228      0.62%     38.75% |       37724      0.63%     39.38% |       37679      0.63%     40.00% |       37717      0.63%     40.63% |       37516      0.62%     41.26% |       37656      0.63%     41.88% |       37692      0.63%     42.51% |       37393      0.62%     43.13% |       37546      0.62%     43.76% |       37391      0.62%     44.38% |       37513      0.62%     45.00% |       37431      0.62%     45.63% |       37693      0.63%     46.25% |       37361      0.62%     46.88% |       37779      0.63%     47.50% |       37970      0.63%     48.14% |       37425      0.62%     48.76% |       37827      0.63%     49.39% |       37714      0.63%     50.02% |       37302      0.62%     50.64% |       37577      0.63%     51.26% |       37290      0.62%     51.88% |       37578      0.63%     52.51% |       37723      0.63%     53.14% |       37382      0.62%     53.76% |       37404      0.62%     54.38% |       37730      0.63%     55.01% |       38065      0.63%     55.64% |       37429      0.62%     56.27% |       37617      0.63%     56.89% |       37686      0.63%     57.52% |       37612      0.63%     58.15% |       37371      0.62%     58.77% |       37674      0.63%     59.40% |       37264      0.62%     60.02% |       37825      0.63%     60.65% |       37634      0.63%     61.27% |       37574      0.63%     61.90% |       37416      0.62%     62.52% |       37652      0.63%     63.15% |       37502      0.62%     63.77% |       37695      0.63%     64.40% |       37699      0.63%     65.03% |       37583      0.63%     65.65% |       37593      0.63%     66.28% |       37333      0.62%     66.90% |       37260      0.62%     67.52% |       37312      0.62%     68.14% |       37569      0.63%     68.77% |       37624      0.63%     69.39% |       37476      0.62%     70.02% |       37508      0.62%     70.64% |       37381      0.62%     71.26% |       37736      0.63%     71.89% |       37592      0.63%     72.52% |       37658      0.63%     73.14% |       37318      0.62%     73.77% |       37828      0.63%     74.39% |       37665      0.63%     75.02% |       37241      0.62%     75.64% |       37594      0.63%     76.27% |       37556      0.63%     76.89% |       37718      0.63%     77.52% |       37368      0.62%     78.14% |       37628      0.63%     78.77% |       37363      0.62%     79.39% |       37374      0.62%     80.01% |       37735      0.63%     80.64% |       37476      0.62%     81.26% |       37437      0.62%     81.89% |       37448      0.62%     82.51% |       37626      0.63%     83.14% |       37622      0.63%     83.76% |       37249      0.62%     84.38% |       37536      0.62%     85.01% |       37154      0.62%     85.63% |       37479      0.62%     86.25% |       37699      0.63%     86.88% |       37569      0.63%     87.50% |       37947      0.63%     88.14% |       37757      0.63%     88.76% |       37294      0.62%     89.38% |       37565      0.63%     90.01% |       37333      0.62%     90.63% |       37453      0.62%     91.26% |       37571      0.63%     91.88% |       37329      0.62%     92.50% |       37510      0.62%     93.13% |       37476      0.62%     93.75% |       37542      0.62%     94.38% |       37393      0.62%     95.00% |       37545      0.62%     95.62% |       37581      0.63%     96.25% |       37608      0.63%     96.87% |       37558      0.63%     97.50% |       37661      0.63%     98.13% |       37552      0.63%     98.75% |       37614      0.63%     99.38% |       37404      0.62%    100.00% (Unspecified)
system.ruby.Directory_Controller.Receive_Request::total      6007483                       (Unspecified)
system.ruby.Directory_Controller.Receive_Response |       37553      0.63%      0.63% |       36906      0.61%      1.24% |       37861      0.63%      1.87% |       37474      0.62%      2.49% |       37478      0.62%      3.12% |       37680      0.63%      3.75% |       37320      0.62%      4.37% |       37887      0.63%      5.00% |       37643      0.63%      5.62% |       37610      0.63%      6.25% |       37754      0.63%      6.88% |       37731      0.63%      7.51% |       37430      0.62%      8.13% |       37597      0.63%      8.76% |       37784      0.63%      9.39% |       37022      0.62%     10.00% |       37606      0.63%     10.63% |       37406      0.62%     11.25% |       37453      0.62%     11.87% |       37349      0.62%     12.50% |       37391      0.62%     13.12% |       37413      0.62%     13.74% |       37727      0.63%     14.37% |       37743      0.63%     15.00% |       37811      0.63%     15.63% |       37404      0.62%     16.25% |       37714      0.63%     16.88% |       37559      0.63%     17.50% |       37144      0.62%     18.12% |       37412      0.62%     18.75% |       37493      0.62%     19.37% |       37410      0.62%     19.99% |       37252      0.62%     20.61% |       37688      0.63%     21.24% |       37990      0.63%     21.87% |       37603      0.63%     22.50% |       37558      0.63%     23.12% |       37772      0.63%     23.75% |       37507      0.62%     24.38% |       37641      0.63%     25.00% |       37801      0.63%     25.63% |       37498      0.62%     26.26% |       37362      0.62%     26.88% |       37573      0.63%     27.51% |       37802      0.63%     28.14% |       37773      0.63%     28.76% |       37518      0.62%     29.39% |       37562      0.63%     30.01% |       37494      0.62%     30.64% |       37099      0.62%     31.26% |       37549      0.63%     31.88% |       37379      0.62%     32.50% |       37553      0.63%     33.13% |       37632      0.63%     33.76% |       37796      0.63%     34.39% |       37838      0.63%     35.02% |       37278      0.62%     35.64% |       37589      0.63%     36.26% |       37780      0.63%     36.89% |       37742      0.63%     37.52% |       37539      0.63%     38.14% |       37338      0.62%     38.77% |       37616      0.63%     39.39% |       37682      0.63%     40.02% |       37609      0.63%     40.65% |       37538      0.63%     41.27% |       37536      0.62%     41.90% |       37454      0.62%     42.52% |       37431      0.62%     43.14% |       37512      0.62%     43.77% |       37788      0.63%     44.40% |       37351      0.62%     45.02% |       37282      0.62%     45.64% |       36999      0.62%     46.26% |       38004      0.63%     46.89% |       37267      0.62%     47.51% |       37279      0.62%     48.13% |       37669      0.63%     48.76% |       37436      0.62%     49.38% |       37227      0.62%     50.00% |       37292      0.62%     50.62% |       37474      0.62%     51.24% |       37619      0.63%     51.87% |       37307      0.62%     52.49% |       37216      0.62%     53.11% |       37735      0.63%     53.74% |       37616      0.63%     54.37% |       37798      0.63%     55.00% |       37491      0.62%     55.62% |       37851      0.63%     56.25% |       37361      0.62%     56.87% |       37396      0.62%     57.49% |       37591      0.63%     58.12% |       37370      0.62%     58.74% |       37687      0.63%     59.37% |       37329      0.62%     59.99% |       37386      0.62%     60.61% |       37500      0.62%     61.24% |       37619      0.63%     61.86% |       37628      0.63%     62.49% |       37535      0.62%     63.12% |       37824      0.63%     63.75% |       37587      0.63%     64.37% |       37396      0.62%     64.99% |       37483      0.62%     65.62% |       37698      0.63%     66.25% |       37744      0.63%     66.87% |       37502      0.62%     67.50% |       37737      0.63%     68.13% |       37438      0.62%     68.75% |       37437      0.62%     69.37% |       37462      0.62%     70.00% |       37908      0.63%     70.63% |       37637      0.63%     71.26% |       37698      0.63%     71.88% |       37590      0.63%     72.51% |       37566      0.63%     73.13% |       37589      0.63%     73.76% |       37904      0.63%     74.39% |       37271      0.62%     75.01% |       37777      0.63%     75.64% |       37228      0.62%     76.26% |       37692      0.63%     76.89% |       37491      0.62%     77.51% |       37804      0.63%     78.14% |       37549      0.63%     78.77% |       37455      0.62%     79.39% |       37360      0.62%     80.01% |       37761      0.63%     80.64% |       37545      0.63%     81.27% |       37417      0.62%     81.89% |       37111      0.62%     82.51% |       37511      0.62%     83.13% |       37628      0.63%     83.76% |       37180      0.62%     84.38% |       37578      0.63%     85.00% |       37631      0.63%     85.63% |       37508      0.62%     86.26% |       37215      0.62%     86.87% |       37528      0.62%     87.50% |       37517      0.62%     88.12% |       37314      0.62%     88.75% |       37568      0.63%     89.37% |       37523      0.62%     90.00% |       37175      0.62%     90.61% |       37778      0.63%     91.24% |       37608      0.63%     91.87% |       37631      0.63%     92.50% |       37376      0.62%     93.12% |       37708      0.63%     93.75% |       37702      0.63%     94.37% |       37817      0.63%     95.00% |       37189      0.62%     95.62% |       37599      0.63%     96.25% |       37509      0.62%     96.87% |       37697      0.63%     97.50% |       37253      0.62%     98.12% |       37585      0.63%     98.75% |       37643      0.63%     99.37% |       37584      0.63%    100.00% (Unspecified)
system.ruby.Directory_Controller.Receive_Response::total      6005968                       (Unspecified)
system.ruby.Directory_Controller.I.Receive_Request |       37468      0.62%      0.62% |       37478      0.62%      1.25% |       37753      0.63%      1.88% |       37569      0.63%      2.50% |       37492      0.62%      3.13% |       37725      0.63%      3.75% |       37375      0.62%      4.38% |       37665      0.63%      5.00% |       37778      0.63%      5.63% |       37501      0.62%      6.26% |       37206      0.62%      6.87% |       37370      0.62%      7.50% |       37519      0.62%      8.12% |       37432      0.62%      8.74% |       37417      0.62%      9.37% |       37581      0.63%      9.99% |       37671      0.63%     10.62% |       37598      0.63%     11.25% |       37667      0.63%     11.87% |       37422      0.62%     12.50% |       37772      0.63%     13.12% |       37526      0.62%     13.75% |       37687      0.63%     14.38% |       37431      0.62%     15.00% |       37349      0.62%     15.62% |       37457      0.62%     16.24% |       37622      0.63%     16.87% |       37931      0.63%     17.50% |       37745      0.63%     18.13% |       37648      0.63%     18.76% |       37503      0.62%     19.38% |       37652      0.63%     20.01% |       37696      0.63%     20.64% |       37524      0.62%     21.26% |       37420      0.62%     21.88% |       37555      0.63%     22.51% |       37455      0.62%     23.13% |       37666      0.63%     23.76% |       37231      0.62%     24.38% |       37454      0.62%     25.00% |       37650      0.63%     25.63% |       37672      0.63%     26.26% |       37433      0.62%     26.88% |       37579      0.63%     27.50% |       37479      0.62%     28.13% |       37520      0.62%     28.75% |       37572      0.63%     29.38% |       37474      0.62%     30.00% |       37792      0.63%     30.63% |       37673      0.63%     31.26% |       37493      0.62%     31.88% |       37661      0.63%     32.51% |       37482      0.62%     33.13% |       37785      0.63%     33.76% |       37429      0.62%     34.39% |       37497      0.62%     35.01% |       37244      0.62%     35.63% |       37459      0.62%     36.25% |       37435      0.62%     36.88% |       37353      0.62%     37.50% |       37833      0.63%     38.13% |       37228      0.62%     38.75% |       37724      0.63%     39.38% |       37679      0.63%     40.00% |       37717      0.63%     40.63% |       37516      0.62%     41.26% |       37656      0.63%     41.88% |       37692      0.63%     42.51% |       37393      0.62%     43.13% |       37546      0.62%     43.76% |       37391      0.62%     44.38% |       37513      0.62%     45.00% |       37431      0.62%     45.63% |       37693      0.63%     46.25% |       37361      0.62%     46.88% |       37779      0.63%     47.50% |       37970      0.63%     48.14% |       37425      0.62%     48.76% |       37827      0.63%     49.39% |       37714      0.63%     50.02% |       37302      0.62%     50.64% |       37577      0.63%     51.26% |       37290      0.62%     51.88% |       37578      0.63%     52.51% |       37723      0.63%     53.14% |       37382      0.62%     53.76% |       37404      0.62%     54.38% |       37730      0.63%     55.01% |       38065      0.63%     55.64% |       37429      0.62%     56.27% |       37617      0.63%     56.89% |       37686      0.63%     57.52% |       37612      0.63%     58.15% |       37371      0.62%     58.77% |       37674      0.63%     59.40% |       37264      0.62%     60.02% |       37825      0.63%     60.65% |       37634      0.63%     61.27% |       37574      0.63%     61.90% |       37416      0.62%     62.52% |       37652      0.63%     63.15% |       37502      0.62%     63.77% |       37695      0.63%     64.40% |       37699      0.63%     65.03% |       37583      0.63%     65.65% |       37593      0.63%     66.28% |       37333      0.62%     66.90% |       37260      0.62%     67.52% |       37312      0.62%     68.14% |       37569      0.63%     68.77% |       37624      0.63%     69.39% |       37476      0.62%     70.02% |       37508      0.62%     70.64% |       37381      0.62%     71.26% |       37736      0.63%     71.89% |       37592      0.63%     72.52% |       37658      0.63%     73.14% |       37318      0.62%     73.77% |       37828      0.63%     74.39% |       37665      0.63%     75.02% |       37241      0.62%     75.64% |       37594      0.63%     76.27% |       37556      0.63%     76.89% |       37718      0.63%     77.52% |       37368      0.62%     78.14% |       37628      0.63%     78.77% |       37363      0.62%     79.39% |       37374      0.62%     80.01% |       37735      0.63%     80.64% |       37476      0.62%     81.26% |       37437      0.62%     81.89% |       37448      0.62%     82.51% |       37626      0.63%     83.14% |       37622      0.63%     83.76% |       37249      0.62%     84.38% |       37536      0.62%     85.01% |       37154      0.62%     85.63% |       37479      0.62%     86.25% |       37699      0.63%     86.88% |       37569      0.63%     87.50% |       37947      0.63%     88.14% |       37757      0.63%     88.76% |       37294      0.62%     89.38% |       37565      0.63%     90.01% |       37333      0.62%     90.63% |       37453      0.62%     91.26% |       37571      0.63%     91.88% |       37329      0.62%     92.50% |       37510      0.62%     93.13% |       37476      0.62%     93.75% |       37542      0.62%     94.38% |       37393      0.62%     95.00% |       37545      0.62%     95.62% |       37581      0.63%     96.25% |       37608      0.63%     96.87% |       37558      0.63%     97.50% |       37661      0.63%     98.13% |       37552      0.63%     98.75% |       37614      0.63%     99.38% |       37404      0.62%    100.00% (Unspecified)
system.ruby.Directory_Controller.I.Receive_Request::total      6007483                       (Unspecified)
system.ruby.Directory_Controller.I.Receive_Response |       37553      0.63%      0.63% |       36906      0.61%      1.24% |       37861      0.63%      1.87% |       37474      0.62%      2.49% |       37478      0.62%      3.12% |       37680      0.63%      3.75% |       37320      0.62%      4.37% |       37887      0.63%      5.00% |       37643      0.63%      5.62% |       37610      0.63%      6.25% |       37754      0.63%      6.88% |       37731      0.63%      7.51% |       37430      0.62%      8.13% |       37597      0.63%      8.76% |       37784      0.63%      9.39% |       37022      0.62%     10.00% |       37606      0.63%     10.63% |       37406      0.62%     11.25% |       37453      0.62%     11.87% |       37349      0.62%     12.50% |       37391      0.62%     13.12% |       37413      0.62%     13.74% |       37727      0.63%     14.37% |       37743      0.63%     15.00% |       37811      0.63%     15.63% |       37404      0.62%     16.25% |       37714      0.63%     16.88% |       37559      0.63%     17.50% |       37144      0.62%     18.12% |       37412      0.62%     18.75% |       37493      0.62%     19.37% |       37410      0.62%     19.99% |       37252      0.62%     20.61% |       37688      0.63%     21.24% |       37990      0.63%     21.87% |       37603      0.63%     22.50% |       37558      0.63%     23.12% |       37772      0.63%     23.75% |       37507      0.62%     24.38% |       37641      0.63%     25.00% |       37801      0.63%     25.63% |       37498      0.62%     26.26% |       37362      0.62%     26.88% |       37573      0.63%     27.51% |       37802      0.63%     28.14% |       37773      0.63%     28.76% |       37518      0.62%     29.39% |       37562      0.63%     30.01% |       37494      0.62%     30.64% |       37099      0.62%     31.26% |       37549      0.63%     31.88% |       37379      0.62%     32.50% |       37553      0.63%     33.13% |       37632      0.63%     33.76% |       37796      0.63%     34.39% |       37838      0.63%     35.02% |       37278      0.62%     35.64% |       37589      0.63%     36.26% |       37780      0.63%     36.89% |       37742      0.63%     37.52% |       37539      0.63%     38.14% |       37338      0.62%     38.77% |       37616      0.63%     39.39% |       37682      0.63%     40.02% |       37609      0.63%     40.65% |       37538      0.63%     41.27% |       37536      0.62%     41.90% |       37454      0.62%     42.52% |       37431      0.62%     43.14% |       37512      0.62%     43.77% |       37788      0.63%     44.40% |       37351      0.62%     45.02% |       37282      0.62%     45.64% |       36999      0.62%     46.26% |       38004      0.63%     46.89% |       37267      0.62%     47.51% |       37279      0.62%     48.13% |       37669      0.63%     48.76% |       37436      0.62%     49.38% |       37227      0.62%     50.00% |       37292      0.62%     50.62% |       37474      0.62%     51.24% |       37619      0.63%     51.87% |       37307      0.62%     52.49% |       37216      0.62%     53.11% |       37735      0.63%     53.74% |       37616      0.63%     54.37% |       37798      0.63%     55.00% |       37491      0.62%     55.62% |       37851      0.63%     56.25% |       37361      0.62%     56.87% |       37396      0.62%     57.49% |       37591      0.63%     58.12% |       37370      0.62%     58.74% |       37687      0.63%     59.37% |       37329      0.62%     59.99% |       37386      0.62%     60.61% |       37500      0.62%     61.24% |       37619      0.63%     61.86% |       37628      0.63%     62.49% |       37535      0.62%     63.12% |       37824      0.63%     63.75% |       37587      0.63%     64.37% |       37396      0.62%     64.99% |       37483      0.62%     65.62% |       37698      0.63%     66.25% |       37744      0.63%     66.87% |       37502      0.62%     67.50% |       37737      0.63%     68.13% |       37438      0.62%     68.75% |       37437      0.62%     69.37% |       37462      0.62%     70.00% |       37908      0.63%     70.63% |       37637      0.63%     71.26% |       37698      0.63%     71.88% |       37590      0.63%     72.51% |       37566      0.63%     73.13% |       37589      0.63%     73.76% |       37904      0.63%     74.39% |       37271      0.62%     75.01% |       37777      0.63%     75.64% |       37228      0.62%     76.26% |       37692      0.63%     76.89% |       37491      0.62%     77.51% |       37804      0.63%     78.14% |       37549      0.63%     78.77% |       37455      0.62%     79.39% |       37360      0.62%     80.01% |       37761      0.63%     80.64% |       37545      0.63%     81.27% |       37417      0.62%     81.89% |       37111      0.62%     82.51% |       37511      0.62%     83.13% |       37628      0.63%     83.76% |       37180      0.62%     84.38% |       37578      0.63%     85.00% |       37631      0.63%     85.63% |       37508      0.62%     86.26% |       37215      0.62%     86.87% |       37528      0.62%     87.50% |       37517      0.62%     88.12% |       37314      0.62%     88.75% |       37568      0.63%     89.37% |       37523      0.62%     90.00% |       37175      0.62%     90.61% |       37778      0.63%     91.24% |       37608      0.63%     91.87% |       37631      0.63%     92.50% |       37376      0.62%     93.12% |       37708      0.63%     93.75% |       37702      0.63%     94.37% |       37817      0.63%     95.00% |       37189      0.62%     95.62% |       37599      0.63%     96.25% |       37509      0.62%     96.87% |       37697      0.63%     97.50% |       37253      0.62%     98.12% |       37585      0.63%     98.75% |       37643      0.63%     99.37% |       37584      0.63%    100.00% (Unspecified)
system.ruby.Directory_Controller.I.Receive_Response::total      6005968                       (Unspecified)
system.ruby.L1Cache_Controller.Request   |      150025      2.50%      2.50% |      150481      2.50%      5.00% |      149852      2.49%      7.50% |      150205      2.50%     10.00% |      150308      2.50%     12.50% |      149658      2.49%     14.99% |      149960      2.50%     17.49% |      150081      2.50%     19.98% |      150192      2.50%     22.48% |      149694      2.49%     24.98% |      150828      2.51%     27.49% |      150186      2.50%     29.99% |      150298      2.50%     32.49% |      150365      2.50%     34.99% |      149806      2.49%     37.49% |      150991      2.51%     40.00% |      150466      2.50%     42.50% |      150627      2.51%     45.01% |      150546      2.51%     47.52% |      151007      2.51%     50.03% |      150162      2.50%     52.53% |      150241      2.50%     55.03% |      150123      2.50%     57.53% |      150447      2.50%     60.03% |      149721      2.49%     62.53% |      150391      2.50%     65.03% |      150459      2.50%     67.53% |      150633      2.51%     70.04% |      150043      2.50%     72.54% |      149731      2.49%     75.03% |      150025      2.50%     77.53% |      149414      2.49%     80.02% |      150105      2.50%     82.51% |      149695      2.49%     85.01% |      150200      2.50%     87.51% |      149978      2.50%     90.00% |      149969      2.50%     92.50% |      149797      2.49%     94.99% |      150614      2.51%     97.50% |      150174      2.50%    100.00% (Unspecified)
system.ruby.L1Cache_Controller.Request::total      6007498                       (Unspecified)
system.ruby.L1Cache_Controller.Response  |      150586      2.51%      2.51% |      149574      2.49%      5.00% |      149944      2.50%      7.49% |      149443      2.49%      9.98% |      150121      2.50%     12.48% |      149459      2.49%     14.97% |      150535      2.51%     17.48% |      150086      2.50%     19.98% |      150601      2.51%     22.48% |      149471      2.49%     24.97% |      150809      2.51%     27.48% |      149783      2.49%     29.98% |      150124      2.50%     32.48% |      150597      2.51%     34.98% |      150012      2.50%     37.48% |      150492      2.51%     39.99% |      149960      2.50%     42.48% |      149780      2.49%     44.98% |      150214      2.50%     47.48% |      150180      2.50%     49.98% |      150849      2.51%     52.49% |      150469      2.51%     55.00% |      150702      2.51%     57.51% |      149447      2.49%     59.99% |      150728      2.51%     62.50% |      150442      2.50%     65.01% |      150334      2.50%     67.51% |      150615      2.51%     70.02% |      149954      2.50%     72.52% |      150610      2.51%     75.02% |      150162      2.50%     77.52% |      150217      2.50%     80.03% |      149707      2.49%     82.52% |      149963      2.50%     85.01% |      149739      2.49%     87.51% |      150898      2.51%     90.02% |      149525      2.49%     92.51% |      149609      2.49%     95.00% |      150309      2.50%     97.50% |      149948      2.50%    100.00% (Unspecified)
system.ruby.L1Cache_Controller.Response::total      6005998                       (Unspecified)
system.ruby.L1Cache_Controller.I.Request |      150025      2.50%      2.50% |      150481      2.50%      5.00% |      149852      2.49%      7.50% |      150205      2.50%     10.00% |      150308      2.50%     12.50% |      149658      2.49%     14.99% |      149960      2.50%     17.49% |      150081      2.50%     19.98% |      150192      2.50%     22.48% |      149694      2.49%     24.98% |      150828      2.51%     27.49% |      150186      2.50%     29.99% |      150298      2.50%     32.49% |      150365      2.50%     34.99% |      149806      2.49%     37.49% |      150991      2.51%     40.00% |      150466      2.50%     42.50% |      150627      2.51%     45.01% |      150546      2.51%     47.52% |      151007      2.51%     50.03% |      150162      2.50%     52.53% |      150241      2.50%     55.03% |      150123      2.50%     57.53% |      150447      2.50%     60.03% |      149721      2.49%     62.53% |      150391      2.50%     65.03% |      150459      2.50%     67.53% |      150633      2.51%     70.04% |      150043      2.50%     72.54% |      149731      2.49%     75.03% |      150025      2.50%     77.53% |      149414      2.49%     80.02% |      150105      2.50%     82.51% |      149695      2.49%     85.01% |      150200      2.50%     87.51% |      149978      2.50%     90.00% |      149969      2.50%     92.50% |      149797      2.49%     94.99% |      150614      2.51%     97.50% |      150174      2.50%    100.00% (Unspecified)
system.ruby.L1Cache_Controller.I.Request::total      6007498                       (Unspecified)
system.ruby.L1Cache_Controller.I.Response |      150586      2.51%      2.51% |      149574      2.49%      5.00% |      149944      2.50%      7.49% |      149443      2.49%      9.98% |      150121      2.50%     12.48% |      149459      2.49%     14.97% |      150535      2.51%     17.48% |      150086      2.50%     19.98% |      150601      2.51%     22.48% |      149471      2.49%     24.97% |      150809      2.51%     27.48% |      149783      2.49%     29.98% |      150124      2.50%     32.48% |      150597      2.51%     34.98% |      150012      2.50%     37.48% |      150492      2.51%     39.99% |      149960      2.50%     42.48% |      149780      2.49%     44.98% |      150214      2.50%     47.48% |      150180      2.50%     49.98% |      150849      2.51%     52.49% |      150469      2.51%     55.00% |      150702      2.51%     57.51% |      149447      2.49%     59.99% |      150728      2.51%     62.50% |      150442      2.50%     65.01% |      150334      2.50%     67.51% |      150615      2.51%     70.02% |      149954      2.50%     72.52% |      150610      2.51%     75.02% |      150162      2.50%     77.52% |      150217      2.50%     80.03% |      149707      2.49%     82.52% |      149963      2.50%     85.01% |      149739      2.49%     87.51% |      150898      2.51%     90.02% |      149525      2.49%     92.51% |      149609      2.49%     95.00% |      150309      2.50%     97.50% |      149948      2.50%    100.00% (Unspecified)
system.ruby.L1Cache_Controller.I.Response::total      6005998                       (Unspecified)
system.ruby.RequestType.LD.latency_hist_seqr::bucket_size            1                       (Unspecified)
system.ruby.RequestType.LD.latency_hist_seqr::max_bucket            9                       (Unspecified)
system.ruby.RequestType.LD.latency_hist_seqr::samples      6007498                       (Unspecified)
system.ruby.RequestType.LD.latency_hist_seqr::mean            1                       (Unspecified)
system.ruby.RequestType.LD.latency_hist_seqr::gmean            1                       (Unspecified)
system.ruby.RequestType.LD.latency_hist_seqr |           0      0.00%      0.00% |     6007498    100.00%    100.00% |           0      0.00%    100.00% |           0      0.00%    100.00% |           0      0.00%    100.00% |           0      0.00%    100.00% |           0      0.00%    100.00% |           0      0.00%    100.00% |           0      0.00%    100.00% |           0      0.00%    100.00% (Unspecified)
system.ruby.RequestType.LD.latency_hist_seqr::total      6007498                       (Unspecified)
system.ruby.RequestType.LD.hit_latency_hist_seqr::bucket_size            1                       (Unspecified)
system.ruby.RequestType.LD.hit_latency_hist_seqr::max_bucket            9                       (Unspecified)
system.ruby.RequestType.LD.hit_latency_hist_seqr::samples      6007498                       (Unspecified)
system.ruby.RequestType.LD.hit_latency_hist_seqr::mean            1                       (Unspecified)
system.ruby.RequestType.LD.hit_latency_hist_seqr::gmean            1                       (Unspecified)
system.ruby.RequestType.LD.hit_latency_hist_seqr |           0      0.00%      0.00% |     6007498    100.00%    100.00% |           0      0.00%    100.00% |           0      0.00%    100.00% |           0      0.00%    100.00% |           0      0.00%    100.00% |           0      0.00%    100.00% |           0      0.00%    100.00% |           0      0.00%    100.00% |           0      0.00%    100.00% (Unspecified)
system.ruby.RequestType.LD.hit_latency_hist_seqr::total      6007498                       (Unspecified)
system.ruby.RequestType.ST.latency_hist_seqr::bucket_size            1                       (Unspecified)
system.ruby.RequestType.ST.latency_hist_seqr::max_bucket            9                       (Unspecified)
system.ruby.RequestType.ST.latency_hist_seqr::samples      6005998                       (Unspecified)
system.ruby.RequestType.ST.latency_hist_seqr::mean            1                       (Unspecified)
system.ruby.RequestType.ST.latency_hist_seqr::gmean            1                       (Unspecified)
system.ruby.RequestType.ST.latency_hist_seqr |           0      0.00%      0.00% |     6005998    100.00%    100.00% |           0      0.00%    100.00% |           0      0.00%    100.00% |           0      0.00%    100.00% |           0      0.00%    100.00% |           0      0.00%    100.00% |           0      0.00%    100.00% |           0      0.00%    100.00% |           0      0.00%    100.00% (Unspecified)
system.ruby.RequestType.ST.latency_hist_seqr::total      6005998                       (Unspecified)
system.ruby.RequestType.ST.hit_latency_hist_seqr::bucket_size            1                       (Unspecified)
system.ruby.RequestType.ST.hit_latency_hist_seqr::max_bucket            9                       (Unspecified)
system.ruby.RequestType.ST.hit_latency_hist_seqr::samples      6005998                       (Unspecified)
system.ruby.RequestType.ST.hit_latency_hist_seqr::mean            1                       (Unspecified)
system.ruby.RequestType.ST.hit_latency_hist_seqr::gmean            1                       (Unspecified)
system.ruby.RequestType.ST.hit_latency_hist_seqr |           0      0.00%      0.00% |     6005998    100.00%    100.00% |           0      0.00%    100.00% |           0      0.00%    100.00% |           0      0.00%    100.00% |           0      0.00%    100.00% |           0      0.00%    100.00% |           0      0.00%    100.00% |           0      0.00%    100.00% |           0      0.00%    100.00% (Unspecified)
system.ruby.RequestType.ST.hit_latency_hist_seqr::total      6005998                       (Unspecified)
system.ruby.clk_domain.clock                      250                       # Clock period in ticks (Tick)
system.ruby.dir_cntrl0.power_state.pwrStateResidencyTicks::UNDEFINED   2147483750                       # Cumulative time (in ticks) in various power states (Tick)
system.ruby.dir_cntrl0.requestToDir.m_msg_count        37468                       # Number of messages passed the buffer (Count)
system.ruby.dir_cntrl0.requestToDir.m_buf_msgs     0.004362                       # Average number of messages in buffer ((Count/Tick))
system.ruby.dir_cntrl0.responseToDir.m_msg_count        37553                       # Number of messages passed the buffer (Count)
system.ruby.dir_cntrl0.responseToDir.m_buf_msgs     0.004372                       # Average number of messages in buffer ((Count/Tick))
system.ruby.dir_cntrl1.power_state.pwrStateResidencyTicks::UNDEFINED   2147483750                       # Cumulative time (in ticks) in various power states (Tick)
system.ruby.dir_cntrl1.requestToDir.m_msg_count        37478                       # Number of messages passed the buffer (Count)
system.ruby.dir_cntrl1.requestToDir.m_buf_msgs     0.004363                       # Average number of messages in buffer ((Count/Tick))
system.ruby.dir_cntrl1.responseToDir.m_msg_count        36906                       # Number of messages passed the buffer (Count)
system.ruby.dir_cntrl1.responseToDir.m_buf_msgs     0.004296                       # Average number of messages in buffer ((Count/Tick))
system.ruby.dir_cntrl10.power_state.pwrStateResidencyTicks::UNDEFINED   2147483750                       # Cumulative time (in ticks) in various power states (Tick)
system.ruby.dir_cntrl10.requestToDir.m_msg_count        37206                       # Number of messages passed the buffer (Count)
system.ruby.dir_cntrl10.requestToDir.m_buf_msgs     0.004331                       # Average number of messages in buffer ((Count/Tick))
system.ruby.dir_cntrl10.responseToDir.m_msg_count        37754                       # Number of messages passed the buffer (Count)
system.ruby.dir_cntrl10.responseToDir.m_buf_msgs     0.004395                       # Average number of messages in buffer ((Count/Tick))
system.ruby.dir_cntrl100.power_state.pwrStateResidencyTicks::UNDEFINED   2147483750                       # Cumulative time (in ticks) in various power states (Tick)
system.ruby.dir_cntrl100.requestToDir.m_msg_count        37652                       # Number of messages passed the buffer (Count)
system.ruby.dir_cntrl100.requestToDir.m_buf_msgs     0.004383                       # Average number of messages in buffer ((Count/Tick))
system.ruby.dir_cntrl100.responseToDir.m_msg_count        37535                       # Number of messages passed the buffer (Count)
system.ruby.dir_cntrl100.responseToDir.m_buf_msgs     0.004370                       # Average number of messages in buffer ((Count/Tick))
system.ruby.dir_cntrl101.power_state.pwrStateResidencyTicks::UNDEFINED   2147483750                       # Cumulative time (in ticks) in various power states (Tick)
system.ruby.dir_cntrl101.requestToDir.m_msg_count        37502                       # Number of messages passed the buffer (Count)
system.ruby.dir_cntrl101.requestToDir.m_buf_msgs     0.004366                       # Average number of messages in buffer ((Count/Tick))
system.ruby.dir_cntrl101.responseToDir.m_msg_count        37824                       # Number of messages passed the buffer (Count)
system.ruby.dir_cntrl101.responseToDir.m_buf_msgs     0.004403                       # Average number of messages in buffer ((Count/Tick))
system.ruby.dir_cntrl102.power_state.pwrStateResidencyTicks::UNDEFINED   2147483750                       # Cumulative time (in ticks) in various power states (Tick)
system.ruby.dir_cntrl102.requestToDir.m_msg_count        37695                       # Number of messages passed the buffer (Count)
system.ruby.dir_cntrl102.requestToDir.m_buf_msgs     0.004388                       # Average number of messages in buffer ((Count/Tick))
system.ruby.dir_cntrl102.responseToDir.m_msg_count        37587                       # Number of messages passed the buffer (Count)
system.ruby.dir_cntrl102.responseToDir.m_buf_msgs     0.004376                       # Average number of messages in buffer ((Count/Tick))
system.ruby.dir_cntrl103.power_state.pwrStateResidencyTicks::UNDEFINED   2147483750                       # Cumulative time (in ticks) in various power states (Tick)
system.ruby.dir_cntrl103.requestToDir.m_msg_count        37699                       # Number of messages passed the buffer (Count)
system.ruby.dir_cntrl103.requestToDir.m_buf_msgs     0.004389                       # Average number of messages in buffer ((Count/Tick))
system.ruby.dir_cntrl103.responseToDir.m_msg_count        37396                       # Number of messages passed the buffer (Count)
system.ruby.dir_cntrl103.responseToDir.m_buf_msgs     0.004353                       # Average number of messages in buffer ((Count/Tick))
system.ruby.dir_cntrl104.power_state.pwrStateResidencyTicks::UNDEFINED   2147483750                       # Cumulative time (in ticks) in various power states (Tick)
system.ruby.dir_cntrl104.requestToDir.m_msg_count        37583                       # Number of messages passed the buffer (Count)
system.ruby.dir_cntrl104.requestToDir.m_buf_msgs     0.004375                       # Average number of messages in buffer ((Count/Tick))
system.ruby.dir_cntrl104.responseToDir.m_msg_count        37483                       # Number of messages passed the buffer (Count)
system.ruby.dir_cntrl104.responseToDir.m_buf_msgs     0.004364                       # Average number of messages in buffer ((Count/Tick))
system.ruby.dir_cntrl105.power_state.pwrStateResidencyTicks::UNDEFINED   2147483750                       # Cumulative time (in ticks) in various power states (Tick)
system.ruby.dir_cntrl105.requestToDir.m_msg_count        37593                       # Number of messages passed the buffer (Count)
system.ruby.dir_cntrl105.requestToDir.m_buf_msgs     0.004376                       # Average number of messages in buffer ((Count/Tick))
system.ruby.dir_cntrl105.responseToDir.m_msg_count        37698                       # Number of messages passed the buffer (Count)
system.ruby.dir_cntrl105.responseToDir.m_buf_msgs     0.004389                       # Average number of messages in buffer ((Count/Tick))
system.ruby.dir_cntrl106.power_state.pwrStateResidencyTicks::UNDEFINED   2147483750                       # Cumulative time (in ticks) in various power states (Tick)
system.ruby.dir_cntrl106.requestToDir.m_msg_count        37333                       # Number of messages passed the buffer (Count)
system.ruby.dir_cntrl106.requestToDir.m_buf_msgs     0.004346                       # Average number of messages in buffer ((Count/Tick))
system.ruby.dir_cntrl106.responseToDir.m_msg_count        37744                       # Number of messages passed the buffer (Count)
system.ruby.dir_cntrl106.responseToDir.m_buf_msgs     0.004394                       # Average number of messages in buffer ((Count/Tick))
system.ruby.dir_cntrl107.power_state.pwrStateResidencyTicks::UNDEFINED   2147483750                       # Cumulative time (in ticks) in various power states (Tick)
system.ruby.dir_cntrl107.requestToDir.m_msg_count        37260                       # Number of messages passed the buffer (Count)
system.ruby.dir_cntrl107.requestToDir.m_buf_msgs     0.004338                       # Average number of messages in buffer ((Count/Tick))
system.ruby.dir_cntrl107.responseToDir.m_msg_count        37502                       # Number of messages passed the buffer (Count)
system.ruby.dir_cntrl107.responseToDir.m_buf_msgs     0.004366                       # Average number of messages in buffer ((Count/Tick))
system.ruby.dir_cntrl108.power_state.pwrStateResidencyTicks::UNDEFINED   2147483750                       # Cumulative time (in ticks) in various power states (Tick)
system.ruby.dir_cntrl108.requestToDir.m_msg_count        37312                       # Number of messages passed the buffer (Count)
system.ruby.dir_cntrl108.requestToDir.m_buf_msgs     0.004344                       # Average number of messages in buffer ((Count/Tick))
system.ruby.dir_cntrl108.responseToDir.m_msg_count        37737                       # Number of messages passed the buffer (Count)
system.ruby.dir_cntrl108.responseToDir.m_buf_msgs     0.004393                       # Average number of messages in buffer ((Count/Tick))
system.ruby.dir_cntrl109.power_state.pwrStateResidencyTicks::UNDEFINED   2147483750                       # Cumulative time (in ticks) in various power states (Tick)
system.ruby.dir_cntrl109.requestToDir.m_msg_count        37569                       # Number of messages passed the buffer (Count)
system.ruby.dir_cntrl109.requestToDir.m_buf_msgs     0.004374                       # Average number of messages in buffer ((Count/Tick))
system.ruby.dir_cntrl109.responseToDir.m_msg_count        37438                       # Number of messages passed the buffer (Count)
system.ruby.dir_cntrl109.responseToDir.m_buf_msgs     0.004358                       # Average number of messages in buffer ((Count/Tick))
system.ruby.dir_cntrl11.power_state.pwrStateResidencyTicks::UNDEFINED   2147483750                       # Cumulative time (in ticks) in various power states (Tick)
system.ruby.dir_cntrl11.requestToDir.m_msg_count        37370                       # Number of messages passed the buffer (Count)
system.ruby.dir_cntrl11.requestToDir.m_buf_msgs     0.004350                       # Average number of messages in buffer ((Count/Tick))
system.ruby.dir_cntrl11.responseToDir.m_msg_count        37731                       # Number of messages passed the buffer (Count)
[...]
system.ruby.network.sankey.vcvn13.vcvn5             0                       (Unspecified)
system.ruby.network.sankey.vcvn13.vcvn6             0                       (Unspecified)
system.ruby.network.sankey.vcvn13.vcvn7             0                       (Unspecified)
system.ruby.network.sankey.vcvn13.vcvn8             0                       (Unspecified)
system.ruby.network.sankey.vcvn13.vcvn9             0                       (Unspecified)
system.ruby.network.sankey.vcvn14.vcvn0             0                       (Unspecified)
system.ruby.network.sankey.vcvn14.vcvn1             0                       (Unspecified)
system.ruby.network.sankey.vcvn14.vcvn10            0                       (Unspecified)
system.ruby.network.sankey.vcvn14.vcvn11            0                       (Unspecified)
system.ruby.network.sankey.vcvn14.vcvn12            0                       (Unspecified)
system.ruby.network.sankey.vcvn14.vcvn13            0                       (Unspecified)
system.ruby.network.sankey.vcvn14.vcvn14      7540316                       (Unspecified)
system.ruby.network.sankey.vcvn14.vcvn15            0                       (Unspecified)
system.ruby.network.sankey.vcvn14.vcvn16            0                       (Unspecified)
system.ruby.network.sankey.vcvn14.vcvn17            0                       (Unspecified)
system.ruby.network.sankey.vcvn14.vcvn2             0                       (Unspecified)
system.ruby.network.sankey.vcvn14.vcvn3             0                       (Unspecified)
system.ruby.network.sankey.vcvn14.vcvn4             0                       (Unspecified)
system.ruby.network.sankey.vcvn14.vcvn5             0                       (Unspecified)
system.ruby.network.sankey.vcvn14.vcvn6             0                       (Unspecified)
system.ruby.network.sankey.vcvn14.vcvn7             0                       (Unspecified)
system.ruby.network.sankey.vcvn14.vcvn8             0                       (Unspecified)
system.ruby.network.sankey.vcvn14.vcvn9             0                       (Unspecified)
system.ruby.network.sankey.vcvn15.vcvn0             0                       (Unspecified)
system.ruby.network.sankey.vcvn15.vcvn1             0                       (Unspecified)
system.ruby.network.sankey.vcvn15.vcvn10            0                       (Unspecified)
system.ruby.network.sankey.vcvn15.vcvn11            0                       (Unspecified)
system.ruby.network.sankey.vcvn15.vcvn12            0                       (Unspecified)
system.ruby.network.sankey.vcvn15.vcvn13            0                       (Unspecified)
system.ruby.network.sankey.vcvn15.vcvn14            0                       (Unspecified)
system.ruby.network.sankey.vcvn15.vcvn15      4039840                       (Unspecified)
system.ruby.network.sankey.vcvn15.vcvn16            0                       (Unspecified)
system.ruby.network.sankey.vcvn15.vcvn17            0                       (Unspecified)
system.ruby.network.sankey.vcvn15.vcvn2             0                       (Unspecified)
system.ruby.network.sankey.vcvn15.vcvn3             0                       (Unspecified)
system.ruby.network.sankey.vcvn15.vcvn4             0                       (Unspecified)
system.ruby.network.sankey.vcvn15.vcvn5             0                       (Unspecified)
system.ruby.network.sankey.vcvn15.vcvn6             0                       (Unspecified)
system.ruby.network.sankey.vcvn15.vcvn7             0                       (Unspecified)
system.ruby.network.sankey.vcvn15.vcvn8             0                       (Unspecified)
system.ruby.network.sankey.vcvn15.vcvn9             0                       (Unspecified)
system.ruby.network.sankey.vcvn16.vcvn0             0                       (Unspecified)
system.ruby.network.sankey.vcvn16.vcvn1             0                       (Unspecified)
system.ruby.network.sankey.vcvn16.vcvn10            0                       (Unspecified)
system.ruby.network.sankey.vcvn16.vcvn11            0                       (Unspecified)
system.ruby.network.sankey.vcvn16.vcvn12            0                       (Unspecified)
system.ruby.network.sankey.vcvn16.vcvn13            0                       (Unspecified)
system.ruby.network.sankey.vcvn16.vcvn14            0                       (Unspecified)
system.ruby.network.sankey.vcvn16.vcvn15            0                       (Unspecified)
system.ruby.network.sankey.vcvn16.vcvn16      4457872                       (Unspecified)
system.ruby.network.sankey.vcvn16.vcvn17            0                       (Unspecified)
system.ruby.network.sankey.vcvn16.vcvn2             0                       (Unspecified)
system.ruby.network.sankey.vcvn16.vcvn3             0                       (Unspecified)
system.ruby.network.sankey.vcvn16.vcvn4             0                       (Unspecified)
system.ruby.network.sankey.vcvn16.vcvn5             0                       (Unspecified)
system.ruby.network.sankey.vcvn16.vcvn6             0                       (Unspecified)
system.ruby.network.sankey.vcvn16.vcvn7             0                       (Unspecified)
system.ruby.network.sankey.vcvn16.vcvn8             0                       (Unspecified)
system.ruby.network.sankey.vcvn16.vcvn9             0                       (Unspecified)
system.ruby.network.sankey.vcvn17.vcvn0             0                       (Unspecified)
system.ruby.network.sankey.vcvn17.vcvn1             0                       (Unspecified)
system.ruby.network.sankey.vcvn17.vcvn10            0                       (Unspecified)
system.ruby.network.sankey.vcvn17.vcvn11            0                       (Unspecified)
system.ruby.network.sankey.vcvn17.vcvn12            0                       (Unspecified)
system.ruby.network.sankey.vcvn17.vcvn13            0                       (Unspecified)
system.ruby.network.sankey.vcvn17.vcvn14            0                       (Unspecified)
system.ruby.network.sankey.vcvn17.vcvn15            0                       (Unspecified)
system.ruby.network.sankey.vcvn17.vcvn16            0                       (Unspecified)
system.ruby.network.sankey.vcvn17.vcvn17      3571720                       (Unspecified)
system.ruby.network.sankey.vcvn17.vcvn2             0                       (Unspecified)
system.ruby.network.sankey.vcvn17.vcvn3             0                       (Unspecified)
system.ruby.network.sankey.vcvn17.vcvn4             0                       (Unspecified)
system.ruby.network.sankey.vcvn17.vcvn5             0                       (Unspecified)
system.ruby.network.sankey.vcvn17.vcvn6             0                       (Unspecified)
system.ruby.network.sankey.vcvn17.vcvn7             0                       (Unspecified)
system.ruby.network.sankey.vcvn17.vcvn8             0                       (Unspecified)
system.ruby.network.sankey.vcvn17.vcvn9             0                       (Unspecified)
system.ruby.network.sankey.vcvn2.vcvn0              0                       (Unspecified)
system.ruby.network.sankey.vcvn2.vcvn1              0                       (Unspecified)
system.ruby.network.sankey.vcvn2.vcvn10             0                       (Unspecified)
system.ruby.network.sankey.vcvn2.vcvn11             0                       (Unspecified)
system.ruby.network.sankey.vcvn2.vcvn12             0                       (Unspecified)
system.ruby.network.sankey.vcvn2.vcvn13             0                       (Unspecified)
system.ruby.network.sankey.vcvn2.vcvn14             0                       (Unspecified)
system.ruby.network.sankey.vcvn2.vcvn15             0                       (Unspecified)
system.ruby.network.sankey.vcvn2.vcvn16             0                       (Unspecified)
system.ruby.network.sankey.vcvn2.vcvn17             0                       (Unspecified)
system.ruby.network.sankey.vcvn2.vcvn2        1633966                       (Unspecified)
system.ruby.network.sankey.vcvn2.vcvn3              0                       (Unspecified)
system.ruby.network.sankey.vcvn2.vcvn4              0                       (Unspecified)
system.ruby.network.sankey.vcvn2.vcvn5              0                       (Unspecified)
system.ruby.network.sankey.vcvn2.vcvn6              0                       (Unspecified)
system.ruby.network.sankey.vcvn2.vcvn7              0                       (Unspecified)
system.ruby.network.sankey.vcvn2.vcvn8              0                       (Unspecified)
system.ruby.network.sankey.vcvn2.vcvn9              0                       (Unspecified)
system.ruby.network.sankey.vcvn3.vcvn0              0                       (Unspecified)
system.ruby.network.sankey.vcvn3.vcvn1              0                       (Unspecified)
system.ruby.network.sankey.vcvn3.vcvn10             0                       (Unspecified)
system.ruby.network.sankey.vcvn3.vcvn11             0                       (Unspecified)
system.ruby.network.sankey.vcvn3.vcvn12             0                       (Unspecified)
system.ruby.network.sankey.vcvn3.vcvn13             0                       (Unspecified)
system.ruby.network.sankey.vcvn3.vcvn14             0                       (Unspecified)
system.ruby.network.sankey.vcvn3.vcvn15             0                       (Unspecified)
system.ruby.network.sankey.vcvn3.vcvn16             0                       (Unspecified)
system.ruby.network.sankey.vcvn3.vcvn17             0                       (Unspecified)
system.ruby.network.sankey.vcvn3.vcvn2              0                       (Unspecified)
system.ruby.network.sankey.vcvn3.vcvn3         848117                       (Unspecified)
system.ruby.network.sankey.vcvn3.vcvn4              0                       (Unspecified)
system.ruby.network.sankey.vcvn3.vcvn5              0                       (Unspecified)
system.ruby.network.sankey.vcvn3.vcvn6              0                       (Unspecified)
system.ruby.network.sankey.vcvn3.vcvn7              0                       (Unspecified)
system.ruby.network.sankey.vcvn3.vcvn8              0                       (Unspecified)
system.ruby.network.sankey.vcvn3.vcvn9              0                       (Unspecified)
system.ruby.network.sankey.vcvn4.vcvn0              0                       (Unspecified)
system.ruby.network.sankey.vcvn4.vcvn1              0                       (Unspecified)
system.ruby.network.sankey.vcvn4.vcvn10             0                       (Unspecified)
system.ruby.network.sankey.vcvn4.vcvn11             0                       (Unspecified)
system.ruby.network.sankey.vcvn4.vcvn12             0                       (Unspecified)
system.ruby.network.sankey.vcvn4.vcvn13             0                       (Unspecified)
system.ruby.network.sankey.vcvn4.vcvn14             0                       (Unspecified)
system.ruby.network.sankey.vcvn4.vcvn15             0                       (Unspecified)
system.ruby.network.sankey.vcvn4.vcvn16             0                       (Unspecified)
system.ruby.network.sankey.vcvn4.vcvn17             0                       (Unspecified)
system.ruby.network.sankey.vcvn4.vcvn2              0                       (Unspecified)
system.ruby.network.sankey.vcvn4.vcvn3              0                       (Unspecified)
system.ruby.network.sankey.vcvn4.vcvn4         946588                       (Unspecified)
system.ruby.network.sankey.vcvn4.vcvn5              0                       (Unspecified)
system.ruby.network.sankey.vcvn4.vcvn6              0                       (Unspecified)
system.ruby.network.sankey.vcvn4.vcvn7              0                       (Unspecified)
system.ruby.network.sankey.vcvn4.vcvn8              0                       (Unspecified)
system.ruby.network.sankey.vcvn4.vcvn9              0                       (Unspecified)
system.ruby.network.sankey.vcvn5.vcvn0              0                       (Unspecified)
system.ruby.network.sankey.vcvn5.vcvn1              0                       (Unspecified)
system.ruby.network.sankey.vcvn5.vcvn10             0                       (Unspecified)
system.ruby.network.sankey.vcvn5.vcvn11             0                       (Unspecified)
system.ruby.network.sankey.vcvn5.vcvn12             0                       (Unspecified)
system.ruby.network.sankey.vcvn5.vcvn13             0                       (Unspecified)
system.ruby.network.sankey.vcvn5.vcvn14             0                       (Unspecified)
system.ruby.network.sankey.vcvn5.vcvn15             0                       (Unspecified)
system.ruby.network.sankey.vcvn5.vcvn16             0                       (Unspecified)
system.ruby.network.sankey.vcvn5.vcvn17             0                       (Unspecified)
system.ruby.network.sankey.vcvn5.vcvn2              0                       (Unspecified)
system.ruby.network.sankey.vcvn5.vcvn3              0                       (Unspecified)
system.ruby.network.sankey.vcvn5.vcvn4              0                       (Unspecified)
system.ruby.network.sankey.vcvn5.vcvn5         716574                       (Unspecified)
system.ruby.network.sankey.vcvn5.vcvn6              0                       (Unspecified)
system.ruby.network.sankey.vcvn5.vcvn7              0                       (Unspecified)
system.ruby.network.sankey.vcvn5.vcvn8              0                       (Unspecified)
system.ruby.network.sankey.vcvn5.vcvn9              0                       (Unspecified)
system.ruby.network.sankey.vcvn6.vcvn0              0                       (Unspecified)
system.ruby.network.sankey.vcvn6.vcvn1              0                       (Unspecified)
system.ruby.network.sankey.vcvn6.vcvn10             0                       (Unspecified)
system.ruby.network.sankey.vcvn6.vcvn11             0                       (Unspecified)
system.ruby.network.sankey.vcvn6.vcvn12             0                       (Unspecified)
system.ruby.network.sankey.vcvn6.vcvn13             0                       (Unspecified)
system.ruby.network.sankey.vcvn6.vcvn14             0                       (Unspecified)
system.ruby.network.sankey.vcvn6.vcvn15             0                       (Unspecified)
system.ruby.network.sankey.vcvn6.vcvn16             0                       (Unspecified)
system.ruby.network.sankey.vcvn6.vcvn17             0                       (Unspecified)
system.ruby.network.sankey.vcvn6.vcvn2              0                       (Unspecified)
system.ruby.network.sankey.vcvn6.vcvn3              0                       (Unspecified)
system.ruby.network.sankey.vcvn6.vcvn4              0                       (Unspecified)
system.ruby.network.sankey.vcvn6.vcvn5              0                       (Unspecified)
system.ruby.network.sankey.vcvn6.vcvn6              0                       (Unspecified)
system.ruby.network.sankey.vcvn6.vcvn7              0                       (Unspecified)
system.ruby.network.sankey.vcvn6.vcvn8              0                       (Unspecified)
system.ruby.network.sankey.vcvn6.vcvn9              0                       (Unspecified)
system.ruby.network.sankey.vcvn7.vcvn0              0                       (Unspecified)
system.ruby.network.sankey.vcvn7.vcvn1              0                       (Unspecified)
system.ruby.network.sankey.vcvn7.vcvn10             0                       (Unspecified)
system.ruby.network.sankey.vcvn7.vcvn11             0                       (Unspecified)
system.ruby.network.sankey.vcvn7.vcvn12             0                       (Unspecified)
system.ruby.network.sankey.vcvn7.vcvn13             0                       (Unspecified)
system.ruby.network.sankey.vcvn7.vcvn14             0                       (Unspecified)
system.ruby.network.sankey.vcvn7.vcvn15             0                       (Unspecified)
system.ruby.network.sankey.vcvn7.vcvn16             0                       (Unspecified)
system.ruby.network.sankey.vcvn7.vcvn17             0                       (Unspecified)
system.ruby.network.sankey.vcvn7.vcvn2              0                       (Unspecified)
system.ruby.network.sankey.vcvn7.vcvn3              0                       (Unspecified)
system.ruby.network.sankey.vcvn7.vcvn4              0                       (Unspecified)
system.ruby.network.sankey.vcvn7.vcvn5              0                       (Unspecified)
system.ruby.network.sankey.vcvn7.vcvn6              0                       (Unspecified)
system.ruby.network.sankey.vcvn7.vcvn7              0                       (Unspecified)
system.ruby.network.sankey.vcvn7.vcvn8              0                       (Unspecified)
system.ruby.network.sankey.vcvn7.vcvn9              0                       (Unspecified)
system.ruby.network.sankey.vcvn8.vcvn0              0                       (Unspecified)
system.ruby.network.sankey.vcvn8.vcvn1              0                       (Unspecified)
system.ruby.network.sankey.vcvn8.vcvn10             0                       (Unspecified)
system.ruby.network.sankey.vcvn8.vcvn11             0                       (Unspecified)
system.ruby.network.sankey.vcvn8.vcvn12             0                       (Unspecified)
system.ruby.network.sankey.vcvn8.vcvn13             0                       (Unspecified)
system.ruby.network.sankey.vcvn8.vcvn14             0                       (Unspecified)
system.ruby.network.sankey.vcvn8.vcvn15             0                       (Unspecified)
system.ruby.network.sankey.vcvn8.vcvn16             0                       (Unspecified)
system.ruby.network.sankey.vcvn8.vcvn17             0                       (Unspecified)
system.ruby.network.sankey.vcvn8.vcvn2              0                       (Unspecified)
system.ruby.network.sankey.vcvn8.vcvn3              0                       (Unspecified)
system.ruby.network.sankey.vcvn8.vcvn4              0                       (Unspecified)
system.ruby.network.sankey.vcvn8.vcvn5              0                       (Unspecified)
system.ruby.network.sankey.vcvn8.vcvn6              0                       (Unspecified)
system.ruby.network.sankey.vcvn8.vcvn7              0                       (Unspecified)
system.ruby.network.sankey.vcvn8.vcvn8              0                       (Unspecified)
system.ruby.network.sankey.vcvn8.vcvn9              0                       (Unspecified)
system.ruby.network.sankey.vcvn9.vcvn0              0                       (Unspecified)
system.ruby.network.sankey.vcvn9.vcvn1              0                       (Unspecified)
system.ruby.network.sankey.vcvn9.vcvn10             0                       (Unspecified)
system.ruby.network.sankey.vcvn9.vcvn11             0                       (Unspecified)
system.ruby.network.sankey.vcvn9.vcvn12             0                       (Unspecified)
system.ruby.network.sankey.vcvn9.vcvn13             0                       (Unspecified)
system.ruby.network.sankey.vcvn9.vcvn14             0                       (Unspecified)
system.ruby.network.sankey.vcvn9.vcvn15             0                       (Unspecified)
system.ruby.network.sankey.vcvn9.vcvn16             0                       (Unspecified)
system.ruby.network.sankey.vcvn9.vcvn17             0                       (Unspecified)
system.ruby.network.sankey.vcvn9.vcvn2              0                       (Unspecified)
system.ruby.network.sankey.vcvn9.vcvn3              0                       (Unspecified)
system.ruby.network.sankey.vcvn9.vcvn4              0                       (Unspecified)
system.ruby.network.sankey.vcvn9.vcvn5              0                       (Unspecified)
system.ruby.network.sankey.vcvn9.vcvn6              0                       (Unspecified)
system.ruby.network.sankey.vcvn9.vcvn7              0                       (Unspecified)
system.ruby.network.sankey.vcvn9.vcvn8              0                       (Unspecified)
system.ruby.network.sankey.vcvn9.vcvn9              0                       (Unspecified)

---------- End Simulation Statistics   ----------
