gem5 Simulator System.  https://www.gem5.org
gem5 is copyrighted software; use the --copyright option for details.

gem5 version 22.0.0.2
gem5 compiled Jun 17 2023 14:31:12
gem5 started Nov 18 2023 15:49:51
gem5 executing on mnemosyne14.ecn.purdue.edu, pid 23667
command line: ./build/Garnet_standalone/gem5.fast -d ./synth_outputs/simple/2b/mixed/mclb_hops_4_6_40cpus_4xdirs_4.0GHz/coh/butter_donut_x/0_17/ configs/auto_top/auto_top_synth.py --topology EscapeVirtualNetworks --noi_routers 20 --sim-cycles 2147483647 --injectionrate 0.17 --noc_clk 4.0GHz --sys-clock 4.0GHz --ruby-clock 4.0GHz --noi_clk 2.7GHz --router_map_file configs/topologies/paper_solutions/butter_donut_x.map --flat_vn_map_file configs/topologies/vn_maps_mclb/butter_donut_x_mclb_hops_4vns.vn --flat_nr_map_file configs/topologies/nr_list_mclb/butter_donut_x_mclb.nrl --ruby --mem_or_coh coh --mem-size 320000000 --num-dirs 160 --num-cpus 40 --network garnet --mem-type SimpleMemory --routing-algorithm 2 --use_escape_vns --synth_traffic --vcs-per-vnet 6 --evn_deadlock_partition 2 --evn_n_deadlock_free 1 --evn_min_n_deadlock_free 4

info: Standard input is not a terminal, disabling listeners.
ingesting configs/topologies/vn_maps_mclb/butter_donut_x_mclb_hops_4vns.vn
cpus(40)=[<m5.objects.GarnetSyntheticTraffic.GarnetSyntheticTraffic object at 0x7fbb6f3d8048>, <m5.objects.GarnetSyntheticTraffic.GarnetSyntheticTraffic object at 0x7fbb6f3d8e10>, <m5.objects.GarnetSyntheticTraffic.GarnetSyntheticTraffic object at 0x7fbb6ef55128>, <m5.objects.GarnetSyntheticTraffic.GarnetSyntheticTraffic object at 0x7fbb6ef55400>, <m5.objects.GarnetSyntheticTraffic.GarnetSyntheticTraffic object at 0x7fbb6ef556d8>, <m5.objects.GarnetSyntheticTraffic.GarnetSyntheticTraffic object at 0x7fbb6ef559b0>, <m5.objects.GarnetSyntheticTraffic.GarnetSyntheticTraffic object at 0x7fbb6ef55c88>, <m5.objects.GarnetSyntheticTraffic.GarnetSyntheticTraffic object at 0x7fbb6ef55f60>, <m5.objects.GarnetSyntheticTraffic.GarnetSyntheticTraffic object at 0x7fbb6ef5e278>, <m5.objects.GarnetSyntheticTraffic.GarnetSyntheticTraffic object at 0x7fbb6ef5e550>, <m5.objects.GarnetSyntheticTraffic.GarnetSyntheticTraffic object at 0x7fbb6ef5e828>, <m5.objects.GarnetSyntheticTraffic.GarnetSyntheticTraffic object at 0x7fbb6ef5eb00>, <m5.objects.GarnetSyntheticTraffic.GarnetSyntheticTraffic object at 0x7fbb6f3d8860>, <m5.objects.GarnetSyntheticTraffic.GarnetSyntheticTraffic object at 0x7fbb6f3c7eb8>, <m5.objects.GarnetSyntheticTraffic.GarnetSyntheticTraffic object at 0x7fbb6f3d26d8>, <m5.objects.GarnetSyntheticTraffic.GarnetSyntheticTraffic object at 0x7fbb6f3d2d30>, <m5.objects.GarnetSyntheticTraffic.GarnetSyntheticTraffic object at 0x7fbb6ef5ed68>, <m5.objects.GarnetSyntheticTraffic.GarnetSyntheticTraffic object at 0x7fbb6ef6a080>, <m5.objects.GarnetSyntheticTraffic.GarnetSyntheticTraffic object at 0x7fbb6ef6a358>, <m5.objects.GarnetSyntheticTraffic.GarnetSyntheticTraffic object at 0x7fbb6ef6a630>, <m5.objects.GarnetSyntheticTraffic.GarnetSyntheticTraffic object at 0x7fbb6ef6a908>, <m5.objects.GarnetSyntheticTraffic.GarnetSyntheticTraffic object at 0x7fbb6ef6abe0>, <m5.objects.GarnetSyntheticTraffic.GarnetSyntheticTraffic object at 0x7fbb6ef6aeb8>, <m5.objects.GarnetSyntheticTraffic.GarnetSyntheticTraffic object at 0x7fbb6ef711d0>, <m5.objects.GarnetSyntheticTraffic.GarnetSyntheticTraffic object at 0x7fbb6ef714a8>, <m5.objects.GarnetSyntheticTraffic.GarnetSyntheticTraffic object at 0x7fbb6ef71780>, <m5.objects.GarnetSyntheticTraffic.GarnetSyntheticTraffic object at 0x7fbb6ef71a58>, <m5.objects.GarnetSyntheticTraffic.GarnetSyntheticTraffic object at 0x7fbb6ef71d30>, <m5.objects.GarnetSyntheticTraffic.GarnetSyntheticTraffic object at 0x7fbb6ef79048>, <m5.objects.GarnetSyntheticTraffic.GarnetSyntheticTraffic object at 0x7fbb6ef79320>, <m5.objects.GarnetSyntheticTraffic.GarnetSyntheticTraffic object at 0x7fbb6ef795f8>, <m5.objects.GarnetSyntheticTraffic.GarnetSyntheticTraffic object at 0x7fbb6ef798d0>, <m5.objects.GarnetSyntheticTraffic.GarnetSyntheticTraffic object at 0x7fbb6ef79ba8>, <m5.objects.GarnetSyntheticTraffic.GarnetSyntheticTraffic object at 0x7fbb6ef79e80>, <m5.objects.GarnetSyntheticTraffic.GarnetSyntheticTraffic object at 0x7fbb6ef82198>, <m5.objects.GarnetSyntheticTraffic.GarnetSyntheticTraffic object at 0x7fbb6ef82470>, <m5.objects.GarnetSyntheticTraffic.GarnetSyntheticTraffic object at 0x7fbb6ef82748>, <m5.objects.GarnetSyntheticTraffic.GarnetSyntheticTraffic object at 0x7fbb6ef82a20>, <m5.objects.GarnetSyntheticTraffic.GarnetSyntheticTraffic object at 0x7fbb6ef82cf8>, <m5.objects.GarnetSyntheticTraffic.GarnetSyntheticTraffic object at 0x7fbb6ef82fd0>])
ingesting configs/topologies/nr_list_mclb/butter_donut_x_mclb.nrl
ingesting configs/topologies/vn_maps_mclb/butter_donut_x_mclb_hops_4vns.vn
ext_cdc_required = True
