gem5 Simulator System.  https://www.gem5.org
gem5 is copyrighted software; use the --copyright option for details.

gem5 version 22.0.0.2
gem5 compiled Jun 17 2023 14:31:12
gem5 started Nov 18 2023 15:50:30
gem5 executing on mnemosyne14.ecn.purdue.edu, pid 23916
command line: ./build/Garnet_standalone/gem5.fast -d ./synth_outputs/simple/2b/mixed/mclb_hops_4_6_40cpus_4xdirs_4.0GHz/coh/ns_l_scop/0_185/ configs/auto_top/auto_top_synth.py --topology EscapeVirtualNetworks --noi_routers 20 --sim-cycles 2147483647 --injectionrate 0.185 --noc_clk 4.0GHz --sys-clock 4.0GHz --ruby-clock 4.0GHz --noi_clk 2.7GHz --router_map_file configs/topologies/paper_solutions/ns_l_scop.map --flat_vn_map_file configs/topologies/vn_maps_mclb/ns_l_scop_mclb_hops_4vns.vn --flat_nr_map_file configs/topologies/nr_list_mclb/ns_l_scop_mclb.nrl --ruby --mem_or_coh coh --mem-size 320000000 --num-dirs 160 --num-cpus 40 --network garnet --mem-type SimpleMemory --routing-algorithm 2 --use_escape_vns --synth_traffic --vcs-per-vnet 6 --evn_deadlock_partition 2 --evn_n_deadlock_free 1 --evn_min_n_deadlock_free 4

info: Standard input is not a terminal, disabling listeners.
ingesting configs/topologies/vn_maps_mclb/ns_l_scop_mclb_hops_4vns.vn
cpus(40)=[<m5.objects.GarnetSyntheticTraffic.GarnetSyntheticTraffic object at 0x7fd99cc310f0>, <m5.objects.GarnetSyntheticTraffic.GarnetSyntheticTraffic object at 0x7fd99cc31dd8>, <m5.objects.GarnetSyntheticTraffic.GarnetSyntheticTraffic object at 0x7fd99c7ad0f0>, <m5.objects.GarnetSyntheticTraffic.GarnetSyntheticTraffic object at 0x7fd99c7ad3c8>, <m5.objects.GarnetSyntheticTraffic.GarnetSyntheticTraffic object at 0x7fd99c7ad6a0>, <m5.objects.GarnetSyntheticTraffic.GarnetSyntheticTraffic object at 0x7fd99c7ad978>, <m5.objects.GarnetSyntheticTraffic.GarnetSyntheticTraffic object at 0x7fd99c7adc50>, <m5.objects.GarnetSyntheticTraffic.GarnetSyntheticTraffic object at 0x7fd99c7adf28>, <m5.objects.GarnetSyntheticTraffic.GarnetSyntheticTraffic object at 0x7fd99c7b6240>, <m5.objects.GarnetSyntheticTraffic.GarnetSyntheticTraffic object at 0x7fd99c7b6518>, <m5.objects.GarnetSyntheticTraffic.GarnetSyntheticTraffic object at 0x7fd99c7b67f0>, <m5.objects.GarnetSyntheticTraffic.GarnetSyntheticTraffic object at 0x7fd99c7b6ac8>, <m5.objects.GarnetSyntheticTraffic.GarnetSyntheticTraffic object at 0x7fd99cc317b8>, <m5.objects.GarnetSyntheticTraffic.GarnetSyntheticTraffic object at 0x7fd99cc21e80>, <m5.objects.GarnetSyntheticTraffic.GarnetSyntheticTraffic object at 0x7fd99cc2b668>, <m5.objects.GarnetSyntheticTraffic.GarnetSyntheticTraffic object at 0x7fd99cc2bcc0>, <m5.objects.GarnetSyntheticTraffic.GarnetSyntheticTraffic object at 0x7fd99c7b6d30>, <m5.objects.GarnetSyntheticTraffic.GarnetSyntheticTraffic object at 0x7fd99c7c2048>, <m5.objects.GarnetSyntheticTraffic.GarnetSyntheticTraffic object at 0x7fd99c7c2320>, <m5.objects.GarnetSyntheticTraffic.GarnetSyntheticTraffic object at 0x7fd99c7c25f8>, <m5.objects.GarnetSyntheticTraffic.GarnetSyntheticTraffic object at 0x7fd99c7c28d0>, <m5.objects.GarnetSyntheticTraffic.GarnetSyntheticTraffic object at 0x7fd99c7c2ba8>, <m5.objects.GarnetSyntheticTraffic.GarnetSyntheticTraffic object at 0x7fd99c7c2e80>, <m5.objects.GarnetSyntheticTraffic.GarnetSyntheticTraffic object at 0x7fd99c7c9198>, <m5.objects.GarnetSyntheticTraffic.GarnetSyntheticTraffic object at 0x7fd99c7c9470>, <m5.objects.GarnetSyntheticTraffic.GarnetSyntheticTraffic object at 0x7fd99c7c9748>, <m5.objects.GarnetSyntheticTraffic.GarnetSyntheticTraffic object at 0x7fd99c7c9a20>, <m5.objects.GarnetSyntheticTraffic.GarnetSyntheticTraffic object at 0x7fd99c7c9cf8>, <m5.objects.GarnetSyntheticTraffic.GarnetSyntheticTraffic object at 0x7fd99c7c9fd0>, <m5.objects.GarnetSyntheticTraffic.GarnetSyntheticTraffic object at 0x7fd99c7d12e8>, <m5.objects.GarnetSyntheticTraffic.GarnetSyntheticTraffic object at 0x7fd99c7d15c0>, <m5.objects.GarnetSyntheticTraffic.GarnetSyntheticTraffic object at 0x7fd99c7d1898>, <m5.objects.GarnetSyntheticTraffic.GarnetSyntheticTraffic object at 0x7fd99c7d1b70>, <m5.objects.GarnetSyntheticTraffic.GarnetSyntheticTraffic object at 0x7fd99c7d1e48>, <m5.objects.GarnetSyntheticTraffic.GarnetSyntheticTraffic object at 0x7fd99c7da160>, <m5.objects.GarnetSyntheticTraffic.GarnetSyntheticTraffic object at 0x7fd99c7da438>, <m5.objects.GarnetSyntheticTraffic.GarnetSyntheticTraffic object at 0x7fd99c7da710>, <m5.objects.GarnetSyntheticTraffic.GarnetSyntheticTraffic object at 0x7fd99c7da9e8>, <m5.objects.GarnetSyntheticTraffic.GarnetSyntheticTraffic object at 0x7fd99c7dacc0>, <m5.objects.GarnetSyntheticTraffic.GarnetSyntheticTraffic object at 0x7fd99c7daf98>])
ingesting configs/topologies/nr_list_mclb/ns_l_scop_mclb.nrl
ingesting configs/topologies/vn_maps_mclb/ns_l_scop_mclb_hops_4vns.vn
ext_cdc_required = True
