
---------- Begin Simulation Statistics ----------
simSeconds                                   0.002147                       # Number of seconds simulated (Second)
simTicks                                   2147483750                       # Number of ticks simulated (Tick)
finalTick                                  2147483750                       # Number of ticks from beginning of simulation (restored from checkpoints and never reset) (Tick)
simFreq                                  1000000000000                       # The number of ticks per simulated second ((Tick/Second))
hostSeconds                                  18706.67                       # Real time elapsed on the host (Second)
hostTickRate                                   114798                       # The number of ticks simulated per host second (ticks/s) ((Tick/Second))
hostMemory                                   27159100                       # Number of bytes of host memory used (Byte)
system.clk_domain.clock                           250                       # Clock period in ticks (Tick)
system.cpu0.power_state.pwrStateResidencyTicks::UNDEFINED   2147483750                       # Cumulative time (in ticks) in various power states (Tick)
system.cpu1.power_state.pwrStateResidencyTicks::UNDEFINED   2147483750                       # Cumulative time (in ticks) in various power states (Tick)
system.cpu10.power_state.pwrStateResidencyTicks::UNDEFINED   2147483750                       # Cumulative time (in ticks) in various power states (Tick)
system.cpu11.power_state.pwrStateResidencyTicks::UNDEFINED   2147483750                       # Cumulative time (in ticks) in various power states (Tick)
system.cpu12.power_state.pwrStateResidencyTicks::UNDEFINED   2147483750                       # Cumulative time (in ticks) in various power states (Tick)
system.cpu13.power_state.pwrStateResidencyTicks::UNDEFINED   2147483750                       # Cumulative time (in ticks) in various power states (Tick)
system.cpu14.power_state.pwrStateResidencyTicks::UNDEFINED   2147483750                       # Cumulative time (in ticks) in various power states (Tick)
system.cpu15.power_state.pwrStateResidencyTicks::UNDEFINED   2147483750                       # Cumulative time (in ticks) in various power states (Tick)
system.cpu16.power_state.pwrStateResidencyTicks::UNDEFINED   2147483750                       # Cumulative time (in ticks) in various power states (Tick)
system.cpu17.power_state.pwrStateResidencyTicks::UNDEFINED   2147483750                       # Cumulative time (in ticks) in various power states (Tick)
system.cpu18.power_state.pwrStateResidencyTicks::UNDEFINED   2147483750                       # Cumulative time (in ticks) in various power states (Tick)
system.cpu19.power_state.pwrStateResidencyTicks::UNDEFINED   2147483750                       # Cumulative time (in ticks) in various power states (Tick)
system.cpu2.power_state.pwrStateResidencyTicks::UNDEFINED   2147483750                       # Cumulative time (in ticks) in various power states (Tick)
system.cpu20.power_state.pwrStateResidencyTicks::UNDEFINED   2147483750                       # Cumulative time (in ticks) in various power states (Tick)
system.cpu21.power_state.pwrStateResidencyTicks::UNDEFINED   2147483750                       # Cumulative time (in ticks) in various power states (Tick)
system.cpu22.power_state.pwrStateResidencyTicks::UNDEFINED   2147483750                       # Cumulative time (in ticks) in various power states (Tick)
system.cpu23.power_state.pwrStateResidencyTicks::UNDEFINED   2147483750                       # Cumulative time (in ticks) in various power states (Tick)
system.cpu24.power_state.pwrStateResidencyTicks::UNDEFINED   2147483750                       # Cumulative time (in ticks) in various power states (Tick)
system.cpu25.power_state.pwrStateResidencyTicks::UNDEFINED   2147483750                       # Cumulative time (in ticks) in various power states (Tick)
system.cpu26.power_state.pwrStateResidencyTicks::UNDEFINED   2147483750                       # Cumulative time (in ticks) in various power states (Tick)
system.cpu27.power_state.pwrStateResidencyTicks::UNDEFINED   2147483750                       # Cumulative time (in ticks) in various power states (Tick)
system.cpu28.power_state.pwrStateResidencyTicks::UNDEFINED   2147483750                       # Cumulative time (in ticks) in various power states (Tick)
system.cpu29.power_state.pwrStateResidencyTicks::UNDEFINED   2147483750                       # Cumulative time (in ticks) in various power states (Tick)
system.cpu3.power_state.pwrStateResidencyTicks::UNDEFINED   2147483750                       # Cumulative time (in ticks) in various power states (Tick)
system.cpu30.power_state.pwrStateResidencyTicks::UNDEFINED   2147483750                       # Cumulative time (in ticks) in various power states (Tick)
system.cpu31.power_state.pwrStateResidencyTicks::UNDEFINED   2147483750                       # Cumulative time (in ticks) in various power states (Tick)
system.cpu32.power_state.pwrStateResidencyTicks::UNDEFINED   2147483750                       # Cumulative time (in ticks) in various power states (Tick)
system.cpu33.power_state.pwrStateResidencyTicks::UNDEFINED   2147483750                       # Cumulative time (in ticks) in various power states (Tick)
system.cpu34.power_state.pwrStateResidencyTicks::UNDEFINED   2147483750                       # Cumulative time (in ticks) in various power states (Tick)
system.cpu35.power_state.pwrStateResidencyTicks::UNDEFINED   2147483750                       # Cumulative time (in ticks) in various power states (Tick)
system.cpu36.power_state.pwrStateResidencyTicks::UNDEFINED   2147483750                       # Cumulative time (in ticks) in various power states (Tick)
system.cpu37.power_state.pwrStateResidencyTicks::UNDEFINED   2147483750                       # Cumulative time (in ticks) in various power states (Tick)
system.cpu38.power_state.pwrStateResidencyTicks::UNDEFINED   2147483750                       # Cumulative time (in ticks) in various power states (Tick)
system.cpu39.power_state.pwrStateResidencyTicks::UNDEFINED   2147483750                       # Cumulative time (in ticks) in various power states (Tick)
system.cpu4.power_state.pwrStateResidencyTicks::UNDEFINED   2147483750                       # Cumulative time (in ticks) in various power states (Tick)
system.cpu40.power_state.pwrStateResidencyTicks::UNDEFINED   2147483750                       # Cumulative time (in ticks) in various power states (Tick)
system.cpu41.power_state.pwrStateResidencyTicks::UNDEFINED   2147483750                       # Cumulative time (in ticks) in various power states (Tick)
system.cpu42.power_state.pwrStateResidencyTicks::UNDEFINED   2147483750                       # Cumulative time (in ticks) in various power states (Tick)
system.cpu43.power_state.pwrStateResidencyTicks::UNDEFINED   2147483750                       # Cumulative time (in ticks) in various power states (Tick)
system.cpu44.power_state.pwrStateResidencyTicks::UNDEFINED   2147483750                       # Cumulative time (in ticks) in various power states (Tick)
system.cpu45.power_state.pwrStateResidencyTicks::UNDEFINED   2147483750                       # Cumulative time (in ticks) in various power states (Tick)
system.cpu46.power_state.pwrStateResidencyTicks::UNDEFINED   2147483750                       # Cumulative time (in ticks) in various power states (Tick)
system.cpu47.power_state.pwrStateResidencyTicks::UNDEFINED   2147483750                       # Cumulative time (in ticks) in various power states (Tick)
system.cpu48.power_state.pwrStateResidencyTicks::UNDEFINED   2147483750                       # Cumulative time (in ticks) in various power states (Tick)
system.cpu49.power_state.pwrStateResidencyTicks::UNDEFINED   2147483750                       # Cumulative time (in ticks) in various power states (Tick)
system.cpu5.power_state.pwrStateResidencyTicks::UNDEFINED   2147483750                       # Cumulative time (in ticks) in various power states (Tick)
system.cpu50.power_state.pwrStateResidencyTicks::UNDEFINED   2147483750                       # Cumulative time (in ticks) in various power states (Tick)
system.cpu51.power_state.pwrStateResidencyTicks::UNDEFINED   2147483750                       # Cumulative time (in ticks) in various power states (Tick)
system.cpu52.power_state.pwrStateResidencyTicks::UNDEFINED   2147483750                       # Cumulative time (in ticks) in various power states (Tick)
system.cpu53.power_state.pwrStateResidencyTicks::UNDEFINED   2147483750                       # Cumulative time (in ticks) in various power states (Tick)
system.cpu54.power_state.pwrStateResidencyTicks::UNDEFINED   2147483750                       # Cumulative time (in ticks) in various power states (Tick)
system.cpu55.power_state.pwrStateResidencyTicks::UNDEFINED   2147483750                       # Cumulative time (in ticks) in various power states (Tick)
system.cpu56.power_state.pwrStateResidencyTicks::UNDEFINED   2147483750                       # Cumulative time (in ticks) in various power states (Tick)
system.cpu57.power_state.pwrStateResidencyTicks::UNDEFINED   2147483750                       # Cumulative time (in ticks) in various power states (Tick)
system.cpu58.power_state.pwrStateResidencyTicks::UNDEFINED   2147483750                       # Cumulative time (in ticks) in various power states (Tick)
system.cpu59.power_state.pwrStateResidencyTicks::UNDEFINED   2147483750                       # Cumulative time (in ticks) in various power states (Tick)
system.cpu6.power_state.pwrStateResidencyTicks::UNDEFINED   2147483750                       # Cumulative time (in ticks) in various power states (Tick)
system.cpu60.power_state.pwrStateResidencyTicks::UNDEFINED   2147483750                       # Cumulative time (in ticks) in various power states (Tick)
system.cpu61.power_state.pwrStateResidencyTicks::UNDEFINED   2147483750                       # Cumulative time (in ticks) in various power states (Tick)
system.cpu62.power_state.pwrStateResidencyTicks::UNDEFINED   2147483750                       # Cumulative time (in ticks) in various power states (Tick)
system.cpu63.power_state.pwrStateResidencyTicks::UNDEFINED   2147483750                       # Cumulative time (in ticks) in various power states (Tick)
system.cpu7.power_state.pwrStateResidencyTicks::UNDEFINED   2147483750                       # Cumulative time (in ticks) in various power states (Tick)
system.cpu8.power_state.pwrStateResidencyTicks::UNDEFINED   2147483750                       # Cumulative time (in ticks) in various power states (Tick)
system.cpu9.power_state.pwrStateResidencyTicks::UNDEFINED   2147483750                       # Cumulative time (in ticks) in various power states (Tick)
system.mem_ctrls0.power_state.pwrStateResidencyTicks::UNDEFINED   2147483750                       # Cumulative time (in ticks) in various power states (Tick)
system.mem_ctrls1.power_state.pwrStateResidencyTicks::UNDEFINED   2147483750                       # Cumulative time (in ticks) in various power states (Tick)
system.mem_ctrls10.power_state.pwrStateResidencyTicks::UNDEFINED   2147483750                       # Cumulative time (in ticks) in various power states (Tick)
system.mem_ctrls11.power_state.pwrStateResidencyTicks::UNDEFINED   2147483750                       # Cumulative time (in ticks) in various power states (Tick)
system.mem_ctrls12.power_state.pwrStateResidencyTicks::UNDEFINED   2147483750                       # Cumulative time (in ticks) in various power states (Tick)
system.mem_ctrls13.power_state.pwrStateResidencyTicks::UNDEFINED   2147483750                       # Cumulative time (in ticks) in various power states (Tick)
system.mem_ctrls14.power_state.pwrStateResidencyTicks::UNDEFINED   2147483750                       # Cumulative time (in ticks) in various power states (Tick)
system.mem_ctrls15.power_state.pwrStateResidencyTicks::UNDEFINED   2147483750                       # Cumulative time (in ticks) in various power states (Tick)
system.mem_ctrls16.power_state.pwrStateResidencyTicks::UNDEFINED   2147483750                       # Cumulative time (in ticks) in various power states (Tick)
system.mem_ctrls17.power_state.pwrStateResidencyTicks::UNDEFINED   2147483750                       # Cumulative time (in ticks) in various power states (Tick)
system.mem_ctrls18.power_state.pwrStateResidencyTicks::UNDEFINED   2147483750                       # Cumulative time (in ticks) in various power states (Tick)
system.mem_ctrls19.power_state.pwrStateResidencyTicks::UNDEFINED   2147483750                       # Cumulative time (in ticks) in various power states (Tick)
system.mem_ctrls2.power_state.pwrStateResidencyTicks::UNDEFINED   2147483750                       # Cumulative time (in ticks) in various power states (Tick)
system.mem_ctrls20.power_state.pwrStateResidencyTicks::UNDEFINED   2147483750                       # Cumulative time (in ticks) in various power states (Tick)
system.mem_ctrls21.power_state.pwrStateResidencyTicks::UNDEFINED   2147483750                       # Cumulative time (in ticks) in various power states (Tick)
system.mem_ctrls22.power_state.pwrStateResidencyTicks::UNDEFINED   2147483750                       # Cumulative time (in ticks) in various power states (Tick)
system.mem_ctrls23.power_state.pwrStateResidencyTicks::UNDEFINED   2147483750                       # Cumulative time (in ticks) in various power states (Tick)
system.mem_ctrls24.power_state.pwrStateResidencyTicks::UNDEFINED   2147483750                       # Cumulative time (in ticks) in various power states (Tick)
system.mem_ctrls25.power_state.pwrStateResidencyTicks::UNDEFINED   2147483750                       # Cumulative time (in ticks) in various power states (Tick)
system.mem_ctrls26.power_state.pwrStateResidencyTicks::UNDEFINED   2147483750                       # Cumulative time (in ticks) in various power states (Tick)
system.mem_ctrls27.power_state.pwrStateResidencyTicks::UNDEFINED   2147483750                       # Cumulative time (in ticks) in various power states (Tick)
system.mem_ctrls28.power_state.pwrStateResidencyTicks::UNDEFINED   2147483750                       # Cumulative time (in ticks) in various power states (Tick)
system.mem_ctrls29.power_state.pwrStateResidencyTicks::UNDEFINED   2147483750                       # Cumulative time (in ticks) in various power states (Tick)
system.mem_ctrls3.power_state.pwrStateResidencyTicks::UNDEFINED   2147483750                       # Cumulative time (in ticks) in various power states (Tick)
system.mem_ctrls30.power_state.pwrStateResidencyTicks::UNDEFINED   2147483750                       # Cumulative time (in ticks) in various power states (Tick)
system.mem_ctrls31.power_state.pwrStateResidencyTicks::UNDEFINED   2147483750                       # Cumulative time (in ticks) in various power states (Tick)
system.mem_ctrls32.power_state.pwrStateResidencyTicks::UNDEFINED   2147483750                       # Cumulative time (in ticks) in various power states (Tick)
system.mem_ctrls33.power_state.pwrStateResidencyTicks::UNDEFINED   2147483750                       # Cumulative time (in ticks) in various power states (Tick)
system.mem_ctrls34.power_state.pwrStateResidencyTicks::UNDEFINED   2147483750                       # Cumulative time (in ticks) in various power states (Tick)
system.mem_ctrls35.power_state.pwrStateResidencyTicks::UNDEFINED   2147483750                       # Cumulative time (in ticks) in various power states (Tick)
system.mem_ctrls36.power_state.pwrStateResidencyTicks::UNDEFINED   2147483750                       # Cumulative time (in ticks) in various power states (Tick)
system.mem_ctrls37.power_state.pwrStateResidencyTicks::UNDEFINED   2147483750                       # Cumulative time (in ticks) in various power states (Tick)
system.mem_ctrls38.power_state.pwrStateResidencyTicks::UNDEFINED   2147483750                       # Cumulative time (in ticks) in various power states (Tick)
system.mem_ctrls39.power_state.pwrStateResidencyTicks::UNDEFINED   2147483750                       # Cumulative time (in ticks) in various power states (Tick)
system.mem_ctrls4.power_state.pwrStateResidencyTicks::UNDEFINED   2147483750                       # Cumulative time (in ticks) in various power states (Tick)
system.mem_ctrls40.power_state.pwrStateResidencyTicks::UNDEFINED   2147483750                       # Cumulative time (in ticks) in various power states (Tick)
system.mem_ctrls41.power_state.pwrStateResidencyTicks::UNDEFINED   2147483750                       # Cumulative time (in ticks) in various power states (Tick)
system.mem_ctrls42.power_state.pwrStateResidencyTicks::UNDEFINED   2147483750                       # Cumulative time (in ticks) in various power states (Tick)
system.mem_ctrls43.power_state.pwrStateResidencyTicks::UNDEFINED   2147483750                       # Cumulative time (in ticks) in various power states (Tick)
system.mem_ctrls44.power_state.pwrStateResidencyTicks::UNDEFINED   2147483750                       # Cumulative time (in ticks) in various power states (Tick)
system.mem_ctrls45.power_state.pwrStateResidencyTicks::UNDEFINED   2147483750                       # Cumulative time (in ticks) in various power states (Tick)
system.mem_ctrls46.power_state.pwrStateResidencyTicks::UNDEFINED   2147483750                       # Cumulative time (in ticks) in various power states (Tick)
system.mem_ctrls47.power_state.pwrStateResidencyTicks::UNDEFINED   2147483750                       # Cumulative time (in ticks) in various power states (Tick)
system.mem_ctrls48.power_state.pwrStateResidencyTicks::UNDEFINED   2147483750                       # Cumulative time (in ticks) in various power states (Tick)
system.mem_ctrls49.power_state.pwrStateResidencyTicks::UNDEFINED   2147483750                       # Cumulative time (in ticks) in various power states (Tick)
system.mem_ctrls5.power_state.pwrStateResidencyTicks::UNDEFINED   2147483750                       # Cumulative time (in ticks) in various power states (Tick)
system.mem_ctrls50.power_state.pwrStateResidencyTicks::UNDEFINED   2147483750                       # Cumulative time (in ticks) in various power states (Tick)
system.mem_ctrls51.power_state.pwrStateResidencyTicks::UNDEFINED   2147483750                       # Cumulative time (in ticks) in various power states (Tick)
system.mem_ctrls52.power_state.pwrStateResidencyTicks::UNDEFINED   2147483750                       # Cumulative time (in ticks) in various power states (Tick)
system.mem_ctrls53.power_state.pwrStateResidencyTicks::UNDEFINED   2147483750                       # Cumulative time (in ticks) in various power states (Tick)
system.mem_ctrls54.power_state.pwrStateResidencyTicks::UNDEFINED   2147483750                       # Cumulative time (in ticks) in various power states (Tick)
system.mem_ctrls55.power_state.pwrStateResidencyTicks::UNDEFINED   2147483750                       # Cumulative time (in ticks) in various power states (Tick)
system.mem_ctrls56.power_state.pwrStateResidencyTicks::UNDEFINED   2147483750                       # Cumulative time (in ticks) in various power states (Tick)
system.mem_ctrls57.power_state.pwrStateResidencyTicks::UNDEFINED   2147483750                       # Cumulative time (in ticks) in various power states (Tick)
system.mem_ctrls58.power_state.pwrStateResidencyTicks::UNDEFINED   2147483750                       # Cumulative time (in ticks) in various power states (Tick)
system.mem_ctrls59.power_state.pwrStateResidencyTicks::UNDEFINED   2147483750                       # Cumulative time (in ticks) in various power states (Tick)
system.mem_ctrls6.power_state.pwrStateResidencyTicks::UNDEFINED   2147483750                       # Cumulative time (in ticks) in various power states (Tick)
system.mem_ctrls60.power_state.pwrStateResidencyTicks::UNDEFINED   2147483750                       # Cumulative time (in ticks) in various power states (Tick)
system.mem_ctrls61.power_state.pwrStateResidencyTicks::UNDEFINED   2147483750                       # Cumulative time (in ticks) in various power states (Tick)
system.mem_ctrls62.power_state.pwrStateResidencyTicks::UNDEFINED   2147483750                       # Cumulative time (in ticks) in various power states (Tick)
system.mem_ctrls63.power_state.pwrStateResidencyTicks::UNDEFINED   2147483750                       # Cumulative time (in ticks) in various power states (Tick)
system.mem_ctrls7.power_state.pwrStateResidencyTicks::UNDEFINED   2147483750                       # Cumulative time (in ticks) in various power states (Tick)
system.mem_ctrls8.power_state.pwrStateResidencyTicks::UNDEFINED   2147483750                       # Cumulative time (in ticks) in various power states (Tick)
system.mem_ctrls9.power_state.pwrStateResidencyTicks::UNDEFINED   2147483750                       # Cumulative time (in ticks) in various power states (Tick)
system.ruby.m_outstandReqHistSeqr::bucket_size            1                       (Unspecified)
system.ruby.m_outstandReqHistSeqr::max_bucket            9                       (Unspecified)
system.ruby.m_outstandReqHistSeqr::samples     65898861                       (Unspecified)
system.ruby.m_outstandReqHistSeqr::mean             1                       (Unspecified)
system.ruby.m_outstandReqHistSeqr::gmean            1                       (Unspecified)
system.ruby.m_outstandReqHistSeqr        |           0      0.00%      0.00% |    65898861    100.00%    100.00% |           0      0.00%    100.00% |           0      0.00%    100.00% |           0      0.00%    100.00% |           0      0.00%    100.00% |           0      0.00%    100.00% |           0      0.00%    100.00% |           0      0.00%    100.00% |           0      0.00%    100.00% (Unspecified)
system.ruby.m_outstandReqHistSeqr::total     65898861                       (Unspecified)
system.ruby.m_latencyHistSeqr::bucket_size            1                       (Unspecified)
system.ruby.m_latencyHistSeqr::max_bucket            9                       (Unspecified)
system.ruby.m_latencyHistSeqr::samples       65898852                       (Unspecified)
system.ruby.m_latencyHistSeqr::mean                 1                       (Unspecified)
system.ruby.m_latencyHistSeqr::gmean                1                       (Unspecified)
system.ruby.m_latencyHistSeqr            |           0      0.00%      0.00% |    65898852    100.00%    100.00% |           0      0.00%    100.00% |           0      0.00%    100.00% |           0      0.00%    100.00% |           0      0.00%    100.00% |           0      0.00%    100.00% |           0      0.00%    100.00% |           0      0.00%    100.00% |           0      0.00%    100.00% (Unspecified)
system.ruby.m_latencyHistSeqr::total         65898852                       (Unspecified)
system.ruby.m_hitLatencyHistSeqr::bucket_size            1                       (Unspecified)
system.ruby.m_hitLatencyHistSeqr::max_bucket            9                       (Unspecified)
system.ruby.m_hitLatencyHistSeqr::samples     65898852                       (Unspecified)
system.ruby.m_hitLatencyHistSeqr::mean              1                       (Unspecified)
system.ruby.m_hitLatencyHistSeqr::gmean             1                       (Unspecified)
system.ruby.m_hitLatencyHistSeqr         |           0      0.00%      0.00% |    65898852    100.00%    100.00% |           0      0.00%    100.00% |           0      0.00%    100.00% |           0      0.00%    100.00% |           0      0.00%    100.00% |           0      0.00%    100.00% |           0      0.00%    100.00% |           0      0.00%    100.00% |           0      0.00%    100.00% (Unspecified)
system.ruby.m_hitLatencyHistSeqr::total      65898852                       (Unspecified)
system.ruby.Directory_Controller.Receive_Request |      342620      1.56%      1.56% |      343282      1.56%      3.12% |      343181      1.56%      4.68% |      343865      1.57%      6.25% |      343152      1.56%      7.81% |      342626      1.56%      9.37% |      341927      1.56%     10.93% |      343177      1.56%     12.49% |      343696      1.56%     14.06% |      343382      1.56%     15.62% |      343462      1.56%     17.18% |      344291      1.57%     18.75% |      343781      1.57%     20.31% |      342476      1.56%     21.87% |      342667      1.56%     23.43% |      343812      1.57%     25.00% |      342495      1.56%     26.56% |      344015      1.57%     28.12% |      343534      1.56%     29.69% |      343373      1.56%     31.25% |      343983      1.57%     32.82% |      342687      1.56%     34.38% |      342589      1.56%     35.94% |      342936      1.56%     37.50% |      342728      1.56%     39.06% |      342446      1.56%     40.62% |      343960      1.57%     42.18% |      341953      1.56%     43.74% |      343813      1.57%     45.30% |      342215      1.56%     46.86% |      344311      1.57%     48.43% |      343069      1.56%     49.99% |      343032      1.56%     51.55% |      343544      1.56%     53.12% |      343583      1.56%     54.68% |      343507      1.56%     56.25% |      343802      1.57%     57.81% |      343551      1.56%     59.37% |      342461      1.56%     60.93% |      343070      1.56%     62.49% |      342949      1.56%     64.06% |      342631      1.56%     65.62% |      344279      1.57%     67.18% |      342807      1.56%     68.74% |      344118      1.57%     70.31% |      343265      1.56%     71.87% |      342746      1.56%     73.43% |      343619      1.56%     75.00% |      342447      1.56%     76.56% |      344271      1.57%     78.12% |      343665      1.56%     79.69% |      343387      1.56%     81.25% |      343015      1.56%     82.81% |      343269      1.56%     84.38% |      342619      1.56%     85.94% |      342833      1.56%     87.50% |      343216      1.56%     89.06% |      342229      1.56%     90.62% |      343222      1.56%     92.18% |      343484      1.56%     93.74% |      343486      1.56%     95.31% |      343781      1.57%     96.87% |      343486      1.56%     98.43% |      343802      1.57%    100.00% (Unspecified)
system.ruby.Directory_Controller.Receive_Request::total     21966680                       (Unspecified)
system.ruby.Directory_Controller.Receive_Forward |      343476      1.56%      1.56% |      342721      1.56%      3.12% |      343439      1.56%      4.69% |      343325      1.56%      6.25% |      343814      1.57%      7.82% |      342130      1.56%      9.37% |      343456      1.56%     10.94% |      342259      1.56%     12.50% |      344331      1.57%     14.06% |      343156      1.56%     15.63% |      343828      1.57%     17.19% |      343034      1.56%     18.75% |      342124      1.56%     20.31% |      343797      1.57%     21.88% |      342736      1.56%     23.44% |      343446      1.56%     25.00% |      344121      1.57%     26.57% |      343392      1.56%     28.13% |      342814      1.56%     29.69% |      343287      1.56%     31.25% |      343332      1.56%     32.82% |      343574      1.56%     34.38% |      342004      1.56%     35.94% |      343571      1.56%     37.50% |      343510      1.56%     39.07% |      342948      1.56%     40.63% |      343378      1.56%     42.19% |      342532      1.56%     43.75% |      342516      1.56%     45.31% |      342767      1.56%     46.87% |      343383      1.56%     48.43% |      342981      1.56%     50.00% |      342883      1.56%     51.56% |      342949      1.56%     53.12% |      343322      1.56%     54.68% |      342965      1.56%     56.24% |      342877      1.56%     57.80% |      344664      1.57%     59.37% |      344494      1.57%     60.94% |      343148      1.56%     62.50% |      343453      1.56%     64.07% |      342615      1.56%     65.63% |      343827      1.57%     67.19% |      342782      1.56%     68.75% |      342725      1.56%     70.31% |      344367      1.57%     71.88% |      343209      1.56%     73.44% |      342966      1.56%     75.01% |      342840      1.56%     76.57% |      343371      1.56%     78.13% |      342115      1.56%     79.69% |      343674      1.56%     81.25% |      342561      1.56%     82.81% |      343680      1.56%     84.38% |      343092      1.56%     85.94% |      342903      1.56%     87.50% |      343198      1.56%     89.06% |      342136      1.56%     90.62% |      343879      1.57%     92.18% |      342481      1.56%     93.74% |      343561      1.56%     95.31% |      344138      1.57%     96.88% |      343425      1.56%     98.44% |      342928      1.56%    100.00% (Unspecified)
system.ruby.Directory_Controller.Receive_Forward::total     21964410                       (Unspecified)
system.ruby.Directory_Controller.Receive_Response |      116779      1.56%      1.56% |      116608      1.56%      3.11% |      116715      1.56%      4.67% |      117304      1.57%      6.24% |      117091      1.56%      7.80% |      117372      1.57%      9.37% |      116468      1.55%     10.92% |      116846      1.56%     12.48% |      116866      1.56%     14.04% |      116927      1.56%     15.60% |      116763      1.56%     17.16% |      116942      1.56%     18.72% |      116786      1.56%     20.28% |      117459      1.57%     21.84% |      117494      1.57%     23.41% |      117462      1.57%     24.98% |      116919      1.56%     26.54% |      117468      1.57%     28.11% |      116940      1.56%     29.67% |      117132      1.56%     31.23% |      117435      1.57%     32.80% |      116676      1.56%     34.35% |      117161      1.56%     35.92% |      117227      1.56%     37.48% |      117492      1.57%     39.05% |      116944      1.56%     40.61% |      117071      1.56%     42.17% |      117120      1.56%     43.73% |      116609      1.56%     45.29% |      116658      1.56%     46.85% |      117064      1.56%     48.41% |      117007      1.56%     49.97% |      117276      1.56%     51.54% |      116713      1.56%     53.09% |      117268      1.56%     54.66% |      117720      1.57%     56.23% |      117299      1.57%     57.79% |      116750      1.56%     59.35% |      117147      1.56%     60.92% |      117302      1.57%     62.48% |      117794      1.57%     64.05% |      116720      1.56%     65.61% |      116820      1.56%     67.17% |      117528      1.57%     68.74% |      117747      1.57%     70.31% |      117256      1.56%     71.87% |      117216      1.56%     73.44% |      116897      1.56%     75.00% |      117165      1.56%     76.56% |      117115      1.56%     78.12% |      116900      1.56%     79.68% |      116841      1.56%     81.24% |      117222      1.56%     82.81% |      117472      1.57%     84.37% |      116908      1.56%     85.93% |      117555      1.57%     87.50% |      116388      1.55%     89.06% |      117576      1.57%     90.62% |      117064      1.56%     92.19% |      116876      1.56%     93.75% |      117111      1.56%     95.31% |      117206      1.56%     96.87% |      116982      1.56%     98.43% |      117355      1.57%    100.00% (Unspecified)
system.ruby.Directory_Controller.Receive_Response::total      7493994                       (Unspecified)
system.ruby.Directory_Controller.I.Receive_Request |      342620      1.56%      1.56% |      343282      1.56%      3.12% |      343181      1.56%      4.68% |      343865      1.57%      6.25% |      343152      1.56%      7.81% |      342626      1.56%      9.37% |      341927      1.56%     10.93% |      343177      1.56%     12.49% |      343696      1.56%     14.06% |      343382      1.56%     15.62% |      343462      1.56%     17.18% |      344291      1.57%     18.75% |      343781      1.57%     20.31% |      342476      1.56%     21.87% |      342667      1.56%     23.43% |      343812      1.57%     25.00% |      342495      1.56%     26.56% |      344015      1.57%     28.12% |      343534      1.56%     29.69% |      343373      1.56%     31.25% |      343983      1.57%     32.82% |      342687      1.56%     34.38% |      342589      1.56%     35.94% |      342936      1.56%     37.50% |      342728      1.56%     39.06% |      342446      1.56%     40.62% |      343960      1.57%     42.18% |      341953      1.56%     43.74% |      343813      1.57%     45.30% |      342215      1.56%     46.86% |      344311      1.57%     48.43% |      343069      1.56%     49.99% |      343032      1.56%     51.55% |      343544      1.56%     53.12% |      343583      1.56%     54.68% |      343507      1.56%     56.25% |      343802      1.57%     57.81% |      343551      1.56%     59.37% |      342461      1.56%     60.93% |      343070      1.56%     62.49% |      342949      1.56%     64.06% |      342631      1.56%     65.62% |      344279      1.57%     67.18% |      342807      1.56%     68.74% |      344118      1.57%     70.31% |      343265      1.56%     71.87% |      342746      1.56%     73.43% |      343619      1.56%     75.00% |      342447      1.56%     76.56% |      344271      1.57%     78.12% |      343665      1.56%     79.69% |      343387      1.56%     81.25% |      343015      1.56%     82.81% |      343269      1.56%     84.38% |      342619      1.56%     85.94% |      342833      1.56%     87.50% |      343216      1.56%     89.06% |      342229      1.56%     90.62% |      343222      1.56%     92.18% |      343484      1.56%     93.74% |      343486      1.56%     95.31% |      343781      1.57%     96.87% |      343486      1.56%     98.43% |      343802      1.57%    100.00% (Unspecified)
system.ruby.Directory_Controller.I.Receive_Request::total     21966680                       (Unspecified)
system.ruby.Directory_Controller.I.Receive_Forward |      343476      1.56%      1.56% |      342721      1.56%      3.12% |      343439      1.56%      4.69% |      343325      1.56%      6.25% |      343814      1.57%      7.82% |      342130      1.56%      9.37% |      343456      1.56%     10.94% |      342259      1.56%     12.50% |      344331      1.57%     14.06% |      343156      1.56%     15.63% |      343828      1.57%     17.19% |      343034      1.56%     18.75% |      342124      1.56%     20.31% |      343797      1.57%     21.88% |      342736      1.56%     23.44% |      343446      1.56%     25.00% |      344121      1.57%     26.57% |      343392      1.56%     28.13% |      342814      1.56%     29.69% |      343287      1.56%     31.25% |      343332      1.56%     32.82% |      343574      1.56%     34.38% |      342004      1.56%     35.94% |      343571      1.56%     37.50% |      343510      1.56%     39.07% |      342948      1.56%     40.63% |      343378      1.56%     42.19% |      342532      1.56%     43.75% |      342516      1.56%     45.31% |      342767      1.56%     46.87% |      343383      1.56%     48.43% |      342981      1.56%     50.00% |      342883      1.56%     51.56% |      342949      1.56%     53.12% |      343322      1.56%     54.68% |      342965      1.56%     56.24% |      342877      1.56%     57.80% |      344664      1.57%     59.37% |      344494      1.57%     60.94% |      343148      1.56%     62.50% |      343453      1.56%     64.07% |      342615      1.56%     65.63% |      343827      1.57%     67.19% |      342782      1.56%     68.75% |      342725      1.56%     70.31% |      344367      1.57%     71.88% |      343209      1.56%     73.44% |      342966      1.56%     75.01% |      342840      1.56%     76.57% |      343371      1.56%     78.13% |      342115      1.56%     79.69% |      343674      1.56%     81.25% |      342561      1.56%     82.81% |      343680      1.56%     84.38% |      343092      1.56%     85.94% |      342903      1.56%     87.50% |      343198      1.56%     89.06% |      342136      1.56%     90.62% |      343879      1.57%     92.18% |      342481      1.56%     93.74% |      343561      1.56%     95.31% |      344138      1.57%     96.88% |      343425      1.56%     98.44% |      342928      1.56%    100.00% (Unspecified)
system.ruby.Directory_Controller.I.Receive_Forward::total     21964410                       (Unspecified)
system.ruby.Directory_Controller.I.Receive_Response |      116779      1.56%      1.56% |      116608      1.56%      3.11% |      116715      1.56%      4.67% |      117304      1.57%      6.24% |      117091      1.56%      7.80% |      117372      1.57%      9.37% |      116468      1.55%     10.92% |      116846      1.56%     12.48% |      116866      1.56%     14.04% |      116927      1.56%     15.60% |      116763      1.56%     17.16% |      116942      1.56%     18.72% |      116786      1.56%     20.28% |      117459      1.57%     21.84% |      117494      1.57%     23.41% |      117462      1.57%     24.98% |      116919      1.56%     26.54% |      117468      1.57%     28.11% |      116940      1.56%     29.67% |      117132      1.56%     31.23% |      117435      1.57%     32.80% |      116676      1.56%     34.35% |      117161      1.56%     35.92% |      117227      1.56%     37.48% |      117492      1.57%     39.05% |      116944      1.56%     40.61% |      117071      1.56%     42.17% |      117120      1.56%     43.73% |      116609      1.56%     45.29% |      116658      1.56%     46.85% |      117064      1.56%     48.41% |      117007      1.56%     49.97% |      117276      1.56%     51.54% |      116713      1.56%     53.09% |      117268      1.56%     54.66% |      117720      1.57%     56.23% |      117299      1.57%     57.79% |      116750      1.56%     59.35% |      117147      1.56%     60.92% |      117302      1.57%     62.48% |      117794      1.57%     64.05% |      116720      1.56%     65.61% |      116820      1.56%     67.17% |      117528      1.57%     68.74% |      117747      1.57%     70.31% |      117256      1.56%     71.87% |      117216      1.56%     73.44% |      116897      1.56%     75.00% |      117165      1.56%     76.56% |      117115      1.56%     78.12% |      116900      1.56%     79.68% |      116841      1.56%     81.24% |      117222      1.56%     82.81% |      117472      1.57%     84.37% |      116908      1.56%     85.93% |      117555      1.57%     87.50% |      116388      1.55%     89.06% |      117576      1.57%     90.62% |      117064      1.56%     92.19% |      116876      1.56%     93.75% |      117111      1.56%     95.31% |      117206      1.56%     96.87% |      116982      1.56%     98.43% |      117355      1.57%    100.00% (Unspecified)
system.ruby.Directory_Controller.I.Receive_Response::total      7493994                       (Unspecified)
system.ruby.L1Cache_Controller.Request   |      344266      1.57%      1.57% |      343258      1.56%      3.13% |      344342      1.57%      4.70% |      344624      1.57%      6.27% |      343482      1.56%      7.83% |      343514      1.56%      9.39% |      343853      1.57%     10.96% |      342977      1.56%     12.52% |      342671      1.56%     14.08% |      343285      1.56%     15.64% |      342947      1.56%     17.20% |      342698      1.56%     18.76% |      343179      1.56%     20.33% |      342284      1.56%     21.88% |      343021      1.56%     23.45% |      344073      1.57%     25.01% |      342801      1.56%     26.57% |      343200      1.56%     28.14% |      343211      1.56%     29.70% |      343611      1.56%     31.26% |      343181      1.56%     32.82% |      343168      1.56%     34.39% |      343258      1.56%     35.95% |      343727      1.56%     37.51% |      342834      1.56%     39.07% |      343754      1.56%     40.64% |      343371      1.56%     42.20% |      343261      1.56%     43.77% |      343577      1.56%     45.33% |      343216      1.56%     46.89% |      343413      1.56%     48.46% |      344339      1.57%     50.02% |      343100      1.56%     51.58% |      342876      1.56%     53.15% |      343265      1.56%     54.71% |      342939      1.56%     56.27% |      343860      1.57%     57.83% |      342081      1.56%     59.39% |      343158      1.56%     60.95% |      343901      1.57%     62.52% |      343436      1.56%     64.08% |      343294      1.56%     65.65% |      343232      1.56%     67.21% |      344109      1.57%     68.78% |      342215      1.56%     70.33% |      342654      1.56%     71.89% |      342862      1.56%     73.45% |      343799      1.57%     75.02% |      342512      1.56%     76.58% |      342702      1.56%     78.14% |      343364      1.56%     79.70% |      342699      1.56%     81.26% |      342646      1.56%     82.82% |      343762      1.56%     84.39% |      343181      1.56%     85.95% |      342918      1.56%     87.51% |      342615      1.56%     89.07% |      343299      1.56%     90.63% |      342948      1.56%     92.19% |      343418      1.56%     93.76% |      341997      1.56%     95.31% |      342838      1.56%     96.87% |      343292      1.56%     98.44% |      343385      1.56%    100.00% (Unspecified)
system.ruby.L1Cache_Controller.Request::total     21966753                       (Unspecified)
system.ruby.L1Cache_Controller.Forward   |      343342      1.56%      1.56% |      342780      1.56%      3.12% |      343017      1.56%      4.69% |      343351      1.56%      6.25% |      344039      1.57%      7.82% |      343038      1.56%      9.38% |      343356      1.56%     10.94% |      343525      1.56%     12.50% |      343808      1.57%     14.07% |      342662      1.56%     15.63% |      343676      1.56%     17.19% |      343192      1.56%     18.76% |      343159      1.56%     20.32% |      342560      1.56%     21.88% |      343423      1.56%     23.44% |      343722      1.56%     25.01% |      343041      1.56%     26.57% |      343566      1.56%     28.13% |      342947      1.56%     29.69% |      342594      1.56%     31.25% |      343466      1.56%     32.82% |      344403      1.57%     34.39% |      344224      1.57%     35.95% |      343029      1.56%     37.51% |      342349      1.56%     39.07% |      342647      1.56%     40.63% |      342895      1.56%     42.19% |      342999      1.56%     43.76% |      343810      1.57%     45.32% |      342763      1.56%     46.88% |      343716      1.56%     48.45% |      343003      1.56%     50.01% |      342621      1.56%     51.57% |      343389      1.56%     53.13% |      342762      1.56%     54.69% |      342668      1.56%     56.25% |      341779      1.56%     57.81% |      344221      1.57%     59.38% |      342833      1.56%     60.94% |      343180      1.56%     62.50% |      343442      1.56%     64.06% |      342594      1.56%     65.62% |      342834      1.56%     67.18% |      343091      1.56%     68.75% |      343308      1.56%     70.31% |      342882      1.56%     71.87% |      342324      1.56%     73.43% |      343310      1.56%     74.99% |      342923      1.56%     76.55% |      344193      1.57%     78.12% |      343028      1.56%     79.68% |      343125      1.56%     81.24% |      343417      1.56%     82.81% |      344035      1.57%     84.37% |      342896      1.56%     85.93% |      343590      1.56%     87.50% |      342780      1.56%     89.06% |      342591      1.56%     90.62% |      343839      1.57%     92.18% |      343916      1.57%     93.75% |      343119      1.56%     95.31% |      342809      1.56%     96.87% |      343584      1.56%     98.44% |      343310      1.56%    100.00% (Unspecified)
system.ruby.L1Cache_Controller.Forward::total     21964495                       (Unspecified)
system.ruby.L1Cache_Controller.Response  |      344065      1.57%      1.57% |      342896      1.56%      3.13% |      342657      1.56%      4.69% |      342475      1.56%      6.25% |      344086      1.57%      7.81% |      342847      1.56%      9.37% |      343784      1.56%     10.94% |      343685      1.56%     12.50% |      343314      1.56%     14.07% |      343434      1.56%     15.63% |      343003      1.56%     17.19% |      343363      1.56%     18.75% |      343345      1.56%     20.32% |      343545      1.56%     21.88% |      343375      1.56%     23.44% |      343359      1.56%     25.01% |      344125      1.57%     26.57% |      343241      1.56%     28.14% |      343741      1.56%     29.70% |      344216      1.57%     31.27% |      343843      1.57%     32.83% |      343435      1.56%     34.40% |      343026      1.56%     35.96% |      342747      1.56%     37.52% |      343379      1.56%     39.08% |      343463      1.56%     40.64% |      342857      1.56%     42.20% |      343258      1.56%     43.77% |      342834      1.56%     45.33% |      342848      1.56%     46.89% |      343755      1.56%     48.45% |      343805      1.57%     50.02% |      342932      1.56%     51.58% |      343496      1.56%     53.14% |      342971      1.56%     54.70% |      343648      1.56%     56.27% |      343530      1.56%     57.83% |      343252      1.56%     59.39% |      343620      1.56%     60.96% |      343390      1.56%     62.52% |      343353      1.56%     64.09% |      342470      1.56%     65.64% |      342693      1.56%     67.20% |      343400      1.56%     68.77% |      342794      1.56%     70.33% |      343052      1.56%     71.89% |      342869      1.56%     73.45% |      343679      1.56%     75.01% |      343510      1.56%     76.58% |      342897      1.56%     78.14% |      342530      1.56%     79.70% |      342637      1.56%     81.26% |      343022      1.56%     82.82% |      343845      1.57%     84.39% |      342157      1.56%     85.94% |      343241      1.56%     87.51% |      343462      1.56%     89.07% |      344552      1.57%     90.64% |      342928      1.56%     92.20% |      342717      1.56%     93.76% |      342993      1.56%     95.32% |      342352      1.56%     96.88% |      343345      1.56%     98.44% |      342461      1.56%    100.00% (Unspecified)
system.ruby.L1Cache_Controller.Response::total     21967604                       (Unspecified)
system.ruby.L1Cache_Controller.I.Request |      344266      1.57%      1.57% |      343258      1.56%      3.13% |      344342      1.57%      4.70% |      344624      1.57%      6.27% |      343482      1.56%      7.83% |      343514      1.56%      9.39% |      343853      1.57%     10.96% |      342977      1.56%     12.52% |      342671      1.56%     14.08% |      343285      1.56%     15.64% |      342947      1.56%     17.20% |      342698      1.56%     18.76% |      343179      1.56%     20.33% |      342284      1.56%     21.88% |      343021      1.56%     23.45% |      344073      1.57%     25.01% |      342801      1.56%     26.57% |      343200      1.56%     28.14% |      343211      1.56%     29.70% |      343611      1.56%     31.26% |      343181      1.56%     32.82% |      343168      1.56%     34.39% |      343258      1.56%     35.95% |      343727      1.56%     37.51% |      342834      1.56%     39.07% |      343754      1.56%     40.64% |      343371      1.56%     42.20% |      343261      1.56%     43.77% |      343577      1.56%     45.33% |      343216      1.56%     46.89% |      343413      1.56%     48.46% |      344339      1.57%     50.02% |      343100      1.56%     51.58% |      342876      1.56%     53.15% |      343265      1.56%     54.71% |      342939      1.56%     56.27% |      343860      1.57%     57.83% |      342081      1.56%     59.39% |      343158      1.56%     60.95% |      343901      1.57%     62.52% |      343436      1.56%     64.08% |      343294      1.56%     65.65% |      343232      1.56%     67.21% |      344109      1.57%     68.78% |      342215      1.56%     70.33% |      342654      1.56%     71.89% |      342862      1.56%     73.45% |      343799      1.57%     75.02% |      342512      1.56%     76.58% |      342702      1.56%     78.14% |      343364      1.56%     79.70% |      342699      1.56%     81.26% |      342646      1.56%     82.82% |      343762      1.56%     84.39% |      343181      1.56%     85.95% |      342918      1.56%     87.51% |      342615      1.56%     89.07% |      343299      1.56%     90.63% |      342948      1.56%     92.19% |      343418      1.56%     93.76% |      341997      1.56%     95.31% |      342838      1.56%     96.87% |      343292      1.56%     98.44% |      343385      1.56%    100.00% (Unspecified)
system.ruby.L1Cache_Controller.I.Request::total     21966753                       (Unspecified)
system.ruby.L1Cache_Controller.I.Forward |      343342      1.56%      1.56% |      342780      1.56%      3.12% |      343017      1.56%      4.69% |      343351      1.56%      6.25% |      344039      1.57%      7.82% |      343038      1.56%      9.38% |      343356      1.56%     10.94% |      343525      1.56%     12.50% |      343808      1.57%     14.07% |      342662      1.56%     15.63% |      343676      1.56%     17.19% |      343192      1.56%     18.76% |      343159      1.56%     20.32% |      342560      1.56%     21.88% |      343423      1.56%     23.44% |      343722      1.56%     25.01% |      343041      1.56%     26.57% |      343566      1.56%     28.13% |      342947      1.56%     29.69% |      342594      1.56%     31.25% |      343466      1.56%     32.82% |      344403      1.57%     34.39% |      344224      1.57%     35.95% |      343029      1.56%     37.51% |      342349      1.56%     39.07% |      342647      1.56%     40.63% |      342895      1.56%     42.19% |      342999      1.56%     43.76% |      343810      1.57%     45.32% |      342763      1.56%     46.88% |      343716      1.56%     48.45% |      343003      1.56%     50.01% |      342621      1.56%     51.57% |      343389      1.56%     53.13% |      342762      1.56%     54.69% |      342668      1.56%     56.25% |      341779      1.56%     57.81% |      344221      1.57%     59.38% |      342833      1.56%     60.94% |      343180      1.56%     62.50% |      343442      1.56%     64.06% |      342594      1.56%     65.62% |      342834      1.56%     67.18% |      343091      1.56%     68.75% |      343308      1.56%     70.31% |      342882      1.56%     71.87% |      342324      1.56%     73.43% |      343310      1.56%     74.99% |      342923      1.56%     76.55% |      344193      1.57%     78.12% |      343028      1.56%     79.68% |      343125      1.56%     81.24% |      343417      1.56%     82.81% |      344035      1.57%     84.37% |      342896      1.56%     85.93% |      343590      1.56%     87.50% |      342780      1.56%     89.06% |      342591      1.56%     90.62% |      343839      1.57%     92.18% |      343916      1.57%     93.75% |      343119      1.56%     95.31% |      342809      1.56%     96.87% |      343584      1.56%     98.44% |      343310      1.56%    100.00% (Unspecified)
system.ruby.L1Cache_Controller.I.Forward::total     21964495                       (Unspecified)
system.ruby.L1Cache_Controller.I.Response |      344065      1.57%      1.57% |      342896      1.56%      3.13% |      342657      1.56%      4.69% |      342475      1.56%      6.25% |      344086      1.57%      7.81% |      342847      1.56%      9.37% |      343784      1.56%     10.94% |      343685      1.56%     12.50% |      343314      1.56%     14.07% |      343434      1.56%     15.63% |      343003      1.56%     17.19% |      343363      1.56%     18.75% |      343345      1.56%     20.32% |      343545      1.56%     21.88% |      343375      1.56%     23.44% |      343359      1.56%     25.01% |      344125      1.57%     26.57% |      343241      1.56%     28.14% |      343741      1.56%     29.70% |      344216      1.57%     31.27% |      343843      1.57%     32.83% |      343435      1.56%     34.40% |      343026      1.56%     35.96% |      342747      1.56%     37.52% |      343379      1.56%     39.08% |      343463      1.56%     40.64% |      342857      1.56%     42.20% |      343258      1.56%     43.77% |      342834      1.56%     45.33% |      342848      1.56%     46.89% |      343755      1.56%     48.45% |      343805      1.57%     50.02% |      342932      1.56%     51.58% |      343496      1.56%     53.14% |      342971      1.56%     54.70% |      343648      1.56%     56.27% |      343530      1.56%     57.83% |      343252      1.56%     59.39% |      343620      1.56%     60.96% |      343390      1.56%     62.52% |      343353      1.56%     64.09% |      342470      1.56%     65.64% |      342693      1.56%     67.20% |      343400      1.56%     68.77% |      342794      1.56%     70.33% |      343052      1.56%     71.89% |      342869      1.56%     73.45% |      343679      1.56%     75.01% |      343510      1.56%     76.58% |      342897      1.56%     78.14% |      342530      1.56%     79.70% |      342637      1.56%     81.26% |      343022      1.56%     82.82% |      343845      1.57%     84.39% |      342157      1.56%     85.94% |      343241      1.56%     87.51% |      343462      1.56%     89.07% |      344552      1.57%     90.64% |      342928      1.56%     92.20% |      342717      1.56%     93.76% |      342993      1.56%     95.32% |      342352      1.56%     96.88% |      343345      1.56%     98.44% |      342461      1.56%    100.00% (Unspecified)
system.ruby.L1Cache_Controller.I.Response::total     21967604                       (Unspecified)
system.ruby.RequestType.LD.latency_hist_seqr::bucket_size            1                       (Unspecified)
system.ruby.RequestType.LD.latency_hist_seqr::max_bucket            9                       (Unspecified)
system.ruby.RequestType.LD.latency_hist_seqr::samples     21966753                       (Unspecified)
system.ruby.RequestType.LD.latency_hist_seqr::mean            1                       (Unspecified)
system.ruby.RequestType.LD.latency_hist_seqr::gmean            1                       (Unspecified)
system.ruby.RequestType.LD.latency_hist_seqr |           0      0.00%      0.00% |    21966753    100.00%    100.00% |           0      0.00%    100.00% |           0      0.00%    100.00% |           0      0.00%    100.00% |           0      0.00%    100.00% |           0      0.00%    100.00% |           0      0.00%    100.00% |           0      0.00%    100.00% |           0      0.00%    100.00% (Unspecified)
system.ruby.RequestType.LD.latency_hist_seqr::total     21966753                       (Unspecified)
system.ruby.RequestType.LD.hit_latency_hist_seqr::bucket_size            1                       (Unspecified)
system.ruby.RequestType.LD.hit_latency_hist_seqr::max_bucket            9                       (Unspecified)
system.ruby.RequestType.LD.hit_latency_hist_seqr::samples     21966753                       (Unspecified)
system.ruby.RequestType.LD.hit_latency_hist_seqr::mean            1                       (Unspecified)
system.ruby.RequestType.LD.hit_latency_hist_seqr::gmean            1                       (Unspecified)
system.ruby.RequestType.LD.hit_latency_hist_seqr |           0      0.00%      0.00% |    21966753    100.00%    100.00% |           0      0.00%    100.00% |           0      0.00%    100.00% |           0      0.00%    100.00% |           0      0.00%    100.00% |           0      0.00%    100.00% |           0      0.00%    100.00% |           0      0.00%    100.00% |           0      0.00%    100.00% (Unspecified)
system.ruby.RequestType.LD.hit_latency_hist_seqr::total     21966753                       (Unspecified)
system.ruby.RequestType.ST.latency_hist_seqr::bucket_size            1                       (Unspecified)
system.ruby.RequestType.ST.latency_hist_seqr::max_bucket            9                       (Unspecified)
system.ruby.RequestType.ST.latency_hist_seqr::samples     21967604                       (Unspecified)
system.ruby.RequestType.ST.latency_hist_seqr::mean            1                       (Unspecified)
system.ruby.RequestType.ST.latency_hist_seqr::gmean            1                       (Unspecified)
system.ruby.RequestType.ST.latency_hist_seqr |           0      0.00%      0.00% |    21967604    100.00%    100.00% |           0      0.00%    100.00% |           0      0.00%    100.00% |           0      0.00%    100.00% |           0      0.00%    100.00% |           0      0.00%    100.00% |           0      0.00%    100.00% |           0      0.00%    100.00% |           0      0.00%    100.00% (Unspecified)
system.ruby.RequestType.ST.latency_hist_seqr::total     21967604                       (Unspecified)
system.ruby.RequestType.ST.hit_latency_hist_seqr::bucket_size            1                       (Unspecified)
system.ruby.RequestType.ST.hit_latency_hist_seqr::max_bucket            9                       (Unspecified)
system.ruby.RequestType.ST.hit_latency_hist_seqr::samples     21967604                       (Unspecified)
system.ruby.RequestType.ST.hit_latency_hist_seqr::mean            1                       (Unspecified)
system.ruby.RequestType.ST.hit_latency_hist_seqr::gmean            1                       (Unspecified)
system.ruby.RequestType.ST.hit_latency_hist_seqr |           0      0.00%      0.00% |    21967604    100.00%    100.00% |           0      0.00%    100.00% |           0      0.00%    100.00% |           0      0.00%    100.00% |           0      0.00%    100.00% |           0      0.00%    100.00% |           0      0.00%    100.00% |           0      0.00%    100.00% |           0      0.00%    100.00% (Unspecified)
system.ruby.RequestType.ST.hit_latency_hist_seqr::total     21967604                       (Unspecified)
system.ruby.RequestType.IFETCH.latency_hist_seqr::bucket_size            1                       (Unspecified)
system.ruby.RequestType.IFETCH.latency_hist_seqr::max_bucket            9                       (Unspecified)
system.ruby.RequestType.IFETCH.latency_hist_seqr::samples     21964495                       (Unspecified)
system.ruby.RequestType.IFETCH.latency_hist_seqr::mean            1                       (Unspecified)
system.ruby.RequestType.IFETCH.latency_hist_seqr::gmean            1                       (Unspecified)
system.ruby.RequestType.IFETCH.latency_hist_seqr |           0      0.00%      0.00% |    21964495    100.00%    100.00% |           0      0.00%    100.00% |           0      0.00%    100.00% |           0      0.00%    100.00% |           0      0.00%    100.00% |           0      0.00%    100.00% |           0      0.00%    100.00% |           0      0.00%    100.00% |           0      0.00%    100.00% (Unspecified)
system.ruby.RequestType.IFETCH.latency_hist_seqr::total     21964495                       (Unspecified)
system.ruby.RequestType.IFETCH.hit_latency_hist_seqr::bucket_size            1                       (Unspecified)
system.ruby.RequestType.IFETCH.hit_latency_hist_seqr::max_bucket            9                       (Unspecified)
system.ruby.RequestType.IFETCH.hit_latency_hist_seqr::samples     21964495                       (Unspecified)
system.ruby.RequestType.IFETCH.hit_latency_hist_seqr::mean            1                       (Unspecified)
system.ruby.RequestType.IFETCH.hit_latency_hist_seqr::gmean            1                       (Unspecified)
system.ruby.RequestType.IFETCH.hit_latency_hist_seqr |           0      0.00%      0.00% |    21964495    100.00%    100.00% |           0      0.00%    100.00% |           0      0.00%    100.00% |           0      0.00%    100.00% |           0      0.00%    100.00% |           0      0.00%    100.00% |           0      0.00%    100.00% |           0      0.00%    100.00% |           0      0.00%    100.00% (Unspecified)
system.ruby.RequestType.IFETCH.hit_latency_hist_seqr::total     21964495                       (Unspecified)
system.ruby.clk_domain.clock                      250                       # Clock period in ticks (Tick)
system.ruby.dir_cntrl0.forwardToDir.m_msg_count       343476                       # Number of messages passed the buffer (Count)
system.ruby.dir_cntrl0.forwardToDir.m_buf_msgs     0.039986                       # Average number of messages in buffer ((Count/Tick))
system.ruby.dir_cntrl0.power_state.pwrStateResidencyTicks::UNDEFINED   2147483750                       # Cumulative time (in ticks) in various power states (Tick)
system.ruby.dir_cntrl0.requestToDir.m_msg_count       342620                       # Number of messages passed the buffer (Count)
system.ruby.dir_cntrl0.requestToDir.m_buf_msgs     0.039886                       # Average number of messages in buffer ((Count/Tick))
system.ruby.dir_cntrl0.responseToDir.m_msg_count       116779                       # Number of messages passed the buffer (Count)
system.ruby.dir_cntrl0.responseToDir.m_buf_msgs     0.013595                       # Average number of messages in buffer ((Count/Tick))
system.ruby.dir_cntrl1.forwardToDir.m_msg_count       342721                       # Number of messages passed the buffer (Count)
system.ruby.dir_cntrl1.forwardToDir.m_buf_msgs     0.039898                       # Average number of messages in buffer ((Count/Tick))
system.ruby.dir_cntrl1.power_state.pwrStateResidencyTicks::UNDEFINED   2147483750                       # Cumulative time (in ticks) in various power states (Tick)
system.ruby.dir_cntrl1.requestToDir.m_msg_count       343282                       # Number of messages passed the buffer (Count)
system.ruby.dir_cntrl1.requestToDir.m_buf_msgs     0.039963                       # Average number of messages in buffer ((Count/Tick))
system.ruby.dir_cntrl1.responseToDir.m_msg_count       116608                       # Number of messages passed the buffer (Count)
system.ruby.dir_cntrl1.responseToDir.m_buf_msgs     0.013575                       # Average number of messages in buffer ((Count/Tick))
system.ruby.dir_cntrl10.forwardToDir.m_msg_count       343828                       # Number of messages passed the buffer (Count)
system.ruby.dir_cntrl10.forwardToDir.m_buf_msgs     0.040027                       # Average number of messages in buffer ((Count/Tick))
system.ruby.dir_cntrl10.power_state.pwrStateResidencyTicks::UNDEFINED   2147483750                       # Cumulative time (in ticks) in various power states (Tick)
system.ruby.dir_cntrl10.requestToDir.m_msg_count       343462                       # Number of messages passed the buffer (Count)
system.ruby.dir_cntrl10.requestToDir.m_buf_msgs     0.039984                       # Average number of messages in buffer ((Count/Tick))
system.ruby.dir_cntrl10.responseToDir.m_msg_count       116763                       # Number of messages passed the buffer (Count)
system.ruby.dir_cntrl10.responseToDir.m_buf_msgs     0.013593                       # Average number of messages in buffer ((Count/Tick))
system.ruby.dir_cntrl11.forwardToDir.m_msg_count       343034                       # Number of messages passed the buffer (Count)
system.ruby.dir_cntrl11.forwardToDir.m_buf_msgs     0.039934                       # Average number of messages in buffer ((Count/Tick))
system.ruby.dir_cntrl11.power_state.pwrStateResidencyTicks::UNDEFINED   2147483750                       # Cumulative time (in ticks) in various power states (Tick)
system.ruby.dir_cntrl11.requestToDir.m_msg_count       344291                       # Number of messages passed the buffer (Count)
system.ruby.dir_cntrl11.requestToDir.m_buf_msgs     0.040081                       # Average number of messages in buffer ((Count/Tick))
system.ruby.dir_cntrl11.responseToDir.m_msg_count       116942                       # Number of messages passed the buffer (Count)
system.ruby.dir_cntrl11.responseToDir.m_buf_msgs     0.013614                       # Average number of messages in buffer ((Count/Tick))
system.ruby.dir_cntrl12.forwardToDir.m_msg_count       342124                       # Number of messages passed the buffer (Count)
system.ruby.dir_cntrl12.forwardToDir.m_buf_msgs     0.039828                       # Average number of messages in buffer ((Count/Tick))
system.ruby.dir_cntrl12.power_state.pwrStateResidencyTicks::UNDEFINED   2147483750                       # Cumulative time (in ticks) in various power states (Tick)
system.ruby.dir_cntrl12.requestToDir.m_msg_count       343781                       # Number of messages passed the buffer (Count)
system.ruby.dir_cntrl12.requestToDir.m_buf_msgs     0.040021                       # Average number of messages in buffer ((Count/Tick))
system.ruby.dir_cntrl12.responseToDir.m_msg_count       116786                       # Number of messages passed the buffer (Count)
system.ruby.dir_cntrl12.responseToDir.m_buf_msgs     0.013596                       # Average number of messages in buffer ((Count/Tick))
system.ruby.dir_cntrl13.forwardToDir.m_msg_count       343797                       # Number of messages passed the buffer (Count)
system.ruby.dir_cntrl13.forwardToDir.m_buf_msgs     0.040023                       # Average number of messages in buffer ((Count/Tick))
system.ruby.dir_cntrl13.power_state.pwrStateResidencyTicks::UNDEFINED   2147483750                       # Cumulative time (in ticks) in various power states (Tick)
system.ruby.dir_cntrl13.requestToDir.m_msg_count       342476                       # Number of messages passed the buffer (Count)
system.ruby.dir_cntrl13.requestToDir.m_buf_msgs     0.039869                       # Average number of messages in buffer ((Count/Tick))
system.ruby.dir_cntrl13.responseToDir.m_msg_count       117459                       # Number of messages passed the buffer (Count)
system.ruby.dir_cntrl13.responseToDir.m_buf_msgs     0.013674                       # Average number of messages in buffer ((Count/Tick))
system.ruby.dir_cntrl14.forwardToDir.m_msg_count       342736                       # Number of messages passed the buffer (Count)
system.ruby.dir_cntrl14.forwardToDir.m_buf_msgs     0.039900                       # Average number of messages in buffer ((Count/Tick))
system.ruby.dir_cntrl14.power_state.pwrStateResidencyTicks::UNDEFINED   2147483750                       # Cumulative time (in ticks) in various power states (Tick)
system.ruby.dir_cntrl14.requestToDir.m_msg_count       342667                       # Number of messages passed the buffer (Count)
system.ruby.dir_cntrl14.requestToDir.m_buf_msgs     0.039892                       # Average number of messages in buffer ((Count/Tick))
system.ruby.dir_cntrl14.responseToDir.m_msg_count       117494                       # Number of messages passed the buffer (Count)
system.ruby.dir_cntrl14.responseToDir.m_buf_msgs     0.013678                       # Average number of messages in buffer ((Count/Tick))
system.ruby.dir_cntrl15.forwardToDir.m_msg_count       343446                       # Number of messages passed the buffer (Count)
system.ruby.dir_cntrl15.forwardToDir.m_buf_msgs     0.039982                       # Average number of messages in buffer ((Count/Tick))
system.ruby.dir_cntrl15.power_state.pwrStateResidencyTicks::UNDEFINED   2147483750                       # Cumulative time (in ticks) in various power states (Tick)
system.ruby.dir_cntrl15.requestToDir.m_msg_count       343812                       # Number of messages passed the buffer (Count)
system.ruby.dir_cntrl15.requestToDir.m_buf_msgs     0.040025                       # Average number of messages in buffer ((Count/Tick))
system.ruby.dir_cntrl15.responseToDir.m_msg_count       117462                       # Number of messages passed the buffer (Count)
system.ruby.dir_cntrl15.responseToDir.m_buf_msgs     0.013674                       # Average number of messages in buffer ((Count/Tick))
system.ruby.dir_cntrl16.forwardToDir.m_msg_count       344121                       # Number of messages passed the buffer (Count)
system.ruby.dir_cntrl16.forwardToDir.m_buf_msgs     0.040061                       # Average number of messages in buffer ((Count/Tick))
system.ruby.dir_cntrl16.power_state.pwrStateResidencyTicks::UNDEFINED   2147483750                       # Cumulative time (in ticks) in various power states (Tick)
system.ruby.dir_cntrl16.requestToDir.m_msg_count       342495                       # Number of messages passed the buffer (Count)
system.ruby.dir_cntrl16.requestToDir.m_buf_msgs     0.039872                       # Average number of messages in buffer ((Count/Tick))
system.ruby.dir_cntrl16.responseToDir.m_msg_count       116919                       # Number of messages passed the buffer (Count)
system.ruby.dir_cntrl16.responseToDir.m_buf_msgs     0.013611                       # Average number of messages in buffer ((Count/Tick))
system.ruby.dir_cntrl17.forwardToDir.m_msg_count       343392                       # Number of messages passed the buffer (Count)
system.ruby.dir_cntrl17.forwardToDir.m_buf_msgs     0.039976                       # Average number of messages in buffer ((Count/Tick))
system.ruby.dir_cntrl17.power_state.pwrStateResidencyTicks::UNDEFINED   2147483750                       # Cumulative time (in ticks) in various power states (Tick)
system.ruby.dir_cntrl17.requestToDir.m_msg_count       344015                       # Number of messages passed the buffer (Count)
system.ruby.dir_cntrl17.requestToDir.m_buf_msgs     0.040049                       # Average number of messages in buffer ((Count/Tick))
system.ruby.dir_cntrl17.responseToDir.m_msg_count       117468                       # Number of messages passed the buffer (Count)
system.ruby.dir_cntrl17.responseToDir.m_buf_msgs     0.013675                       # Average number of messages in buffer ((Count/Tick))
system.ruby.dir_cntrl18.forwardToDir.m_msg_count       342814                       # Number of messages passed the buffer (Count)
system.ruby.dir_cntrl18.forwardToDir.m_buf_msgs     0.039909                       # Average number of messages in buffer ((Count/Tick))
system.ruby.dir_cntrl18.power_state.pwrStateResidencyTicks::UNDEFINED   2147483750                       # Cumulative time (in ticks) in various power states (Tick)
system.ruby.dir_cntrl18.requestToDir.m_msg_count       343534                       # Number of messages passed the buffer (Count)
system.ruby.dir_cntrl18.requestToDir.m_buf_msgs     0.039993                       # Average number of messages in buffer ((Count/Tick))
system.ruby.dir_cntrl18.responseToDir.m_msg_count       116940                       # Number of messages passed the buffer (Count)
system.ruby.dir_cntrl18.responseToDir.m_buf_msgs     0.013614                       # Average number of messages in buffer ((Count/Tick))
system.ruby.dir_cntrl19.forwardToDir.m_msg_count       343287                       # Number of messages passed the buffer (Count)
system.ruby.dir_cntrl19.forwardToDir.m_buf_msgs     0.039964                       # Average number of messages in buffer ((Count/Tick))
system.ruby.dir_cntrl19.power_state.pwrStateResidencyTicks::UNDEFINED   2147483750                       # Cumulative time (in ticks) in various power states (Tick)
system.ruby.dir_cntrl19.requestToDir.m_msg_count       343373                       # Number of messages passed the buffer (Count)
system.ruby.dir_cntrl19.requestToDir.m_buf_msgs     0.039974                       # Average number of messages in buffer ((Count/Tick))
system.ruby.dir_cntrl19.responseToDir.m_msg_count       117132                       # Number of messages passed the buffer (Count)
system.ruby.dir_cntrl19.responseToDir.m_buf_msgs     0.013636                       # Average number of messages in buffer ((Count/Tick))
system.ruby.dir_cntrl2.forwardToDir.m_msg_count       343439                       # Number of messages passed the buffer (Count)
system.ruby.dir_cntrl2.forwardToDir.m_buf_msgs     0.039982                       # Average number of messages in buffer ((Count/Tick))
system.ruby.dir_cntrl2.power_state.pwrStateResidencyTicks::UNDEFINED   2147483750                       # Cumulative time (in ticks) in various power states (Tick)
system.ruby.dir_cntrl2.requestToDir.m_msg_count       343181                       # Number of messages passed the buffer (Count)
system.ruby.dir_cntrl2.requestToDir.m_buf_msgs     0.039952                       # Average number of messages in buffer ((Count/Tick))
system.ruby.dir_cntrl2.responseToDir.m_msg_count       116715                       # Number of messages passed the buffer (Count)
system.ruby.dir_cntrl2.responseToDir.m_buf_msgs     0.013587                       # Average number of messages in buffer ((Count/Tick))
system.ruby.dir_cntrl20.forwardToDir.m_msg_count       343332                       # Number of messages passed the buffer (Count)
system.ruby.dir_cntrl20.forwardToDir.m_buf_msgs     0.039969                       # Average number of messages in buffer ((Count/Tick))
system.ruby.dir_cntrl20.power_state.pwrStateResidencyTicks::UNDEFINED   2147483750                       # Cumulative time (in ticks) in various power states (Tick)
system.ruby.dir_cntrl20.requestToDir.m_msg_count       343983                       # Number of messages passed the buffer (Count)
system.ruby.dir_cntrl20.requestToDir.m_buf_msgs     0.040045                       # Average number of messages in buffer ((Count/Tick))
system.ruby.dir_cntrl20.responseToDir.m_msg_count       117435                       # Number of messages passed the buffer (Count)
system.ruby.dir_cntrl20.responseToDir.m_buf_msgs     0.013671                       # Average number of messages in buffer ((Count/Tick))
system.ruby.dir_cntrl21.forwardToDir.m_msg_count       343574                       # Number of messages passed the buffer (Count)
system.ruby.dir_cntrl21.forwardToDir.m_buf_msgs     0.039997                       # Average number of messages in buffer ((Count/Tick))
system.ruby.dir_cntrl21.power_state.pwrStateResidencyTicks::UNDEFINED   2147483750                       # Cumulative time (in ticks) in various power states (Tick)
system.ruby.dir_cntrl21.requestToDir.m_msg_count       342687                       # Number of messages passed the buffer (Count)
system.ruby.dir_cntrl21.requestToDir.m_buf_msgs     0.039894                       # Average number of messages in buffer ((Count/Tick))
system.ruby.dir_cntrl21.responseToDir.m_msg_count       116676                       # Number of messages passed the buffer (Count)
system.ruby.dir_cntrl21.responseToDir.m_buf_msgs     0.013583                       # Average number of messages in buffer ((Count/Tick))
system.ruby.dir_cntrl22.forwardToDir.m_msg_count       342004                       # Number of messages passed the buffer (Count)
system.ruby.dir_cntrl22.forwardToDir.m_buf_msgs     0.039815                       # Average number of messages in buffer ((Count/Tick))
system.ruby.dir_cntrl22.power_state.pwrStateResidencyTicks::UNDEFINED   2147483750                       # Cumulative time (in ticks) in various power states (Tick)
system.ruby.dir_cntrl22.requestToDir.m_msg_count       342589                       # Number of messages passed the buffer (Count)
system.ruby.dir_cntrl22.requestToDir.m_buf_msgs     0.039883                       # Average number of messages in buffer ((Count/Tick))
system.ruby.dir_cntrl22.responseToDir.m_msg_count       117161                       # Number of messages passed the buffer (Count)
system.ruby.dir_cntrl22.responseToDir.m_buf_msgs     0.013639                       # Average number of messages in buffer ((Count/Tick))
system.ruby.dir_cntrl23.forwardToDir.m_msg_count       343571                       # Number of messages passed the buffer (Count)
system.ruby.dir_cntrl23.forwardToDir.m_buf_msgs     0.039997                       # Average number of messages in buffer ((Count/Tick))
system.ruby.dir_cntrl23.power_state.pwrStateResidencyTicks::UNDEFINED   2147483750                       # Cumulative time (in ticks) in various power states (Tick)
system.ruby.dir_cntrl23.requestToDir.m_msg_count       342936                       # Number of messages passed the buffer (Count)
system.ruby.dir_cntrl23.requestToDir.m_buf_msgs     0.039923                       # Average number of messages in buffer ((Count/Tick))
system.ruby.dir_cntrl23.responseToDir.m_msg_count       117227                       # Number of messages passed the buffer (Count)
system.ruby.dir_cntrl23.responseToDir.m_buf_msgs     0.013647                       # Average number of messages in buffer ((Count/Tick))
system.ruby.dir_cntrl24.forwardToDir.m_msg_count       343510                       # Number of messages passed the buffer (Count)
system.ruby.dir_cntrl24.forwardToDir.m_buf_msgs     0.039990                       # Average number of messages in buffer ((Count/Tick))
system.ruby.dir_cntrl24.power_state.pwrStateResidencyTicks::UNDEFINED   2147483750                       # Cumulative time (in ticks) in various power states (Tick)
system.ruby.dir_cntrl24.requestToDir.m_msg_count       342728                       # Number of messages passed the buffer (Count)
system.ruby.dir_cntrl24.requestToDir.m_buf_msgs     0.039899                       # Average number of messages in buffer ((Count/Tick))
system.ruby.dir_cntrl24.responseToDir.m_msg_count       117492                       # Number of messages passed the buffer (Count)
system.ruby.dir_cntrl24.responseToDir.m_buf_msgs     0.013678                       # Average number of messages in buffer ((Count/Tick))
system.ruby.dir_cntrl25.forwardToDir.m_msg_count       342948                       # Number of messages passed the buffer (Count)
system.ruby.dir_cntrl25.forwardToDir.m_buf_msgs     0.039924                       # Average number of messages in buffer ((Count/Tick))
system.ruby.dir_cntrl25.power_state.pwrStateResidencyTicks::UNDEFINED   2147483750                       # Cumulative time (in ticks) in various power states (Tick)
system.ruby.dir_cntrl25.requestToDir.m_msg_count       342446                       # Number of messages passed the buffer (Count)
system.ruby.dir_cntrl25.requestToDir.m_buf_msgs     0.039866                       # Average number of messages in buffer ((Count/Tick))
system.ruby.dir_cntrl25.responseToDir.m_msg_count       116944                       # Number of messages passed the buffer (Count)
system.ruby.dir_cntrl25.responseToDir.m_buf_msgs     0.013614                       # Average number of messages in buffer ((Count/Tick))
system.ruby.dir_cntrl26.forwardToDir.m_msg_count       343378                       # Number of messages passed the buffer (Count)
system.ruby.dir_cntrl26.forwardToDir.m_buf_msgs     0.039974                       # Average number of messages in buffer ((Count/Tick))
system.ruby.dir_cntrl26.power_state.pwrStateResidencyTicks::UNDEFINED   2147483750                       # Cumulative time (in ticks) in various power states (Tick)
system.ruby.dir_cntrl26.requestToDir.m_msg_count       343960                       # Number of messages passed the buffer (Count)
system.ruby.dir_cntrl26.requestToDir.m_buf_msgs     0.040042                       # Average number of messages in buffer ((Count/Tick))
system.ruby.dir_cntrl26.responseToDir.m_msg_count       117071                       # Number of messages passed the buffer (Count)
system.ruby.dir_cntrl26.responseToDir.m_buf_msgs     0.013629                       # Average number of messages in buffer ((Count/Tick))
system.ruby.dir_cntrl27.forwardToDir.m_msg_count       342532                       # Number of messages passed the buffer (Count)
system.ruby.dir_cntrl27.forwardToDir.m_buf_msgs     0.039876                       # Average number of messages in buffer ((Count/Tick))
system.ruby.dir_cntrl27.power_state.pwrStateResidencyTicks::UNDEFINED   2147483750                       # Cumulative time (in ticks) in various power states (Tick)
[...]
system.ruby.network.sankey.vcvn35.vcvn5             0                       (Unspecified)
system.ruby.network.sankey.vcvn35.vcvn6             0                       (Unspecified)
system.ruby.network.sankey.vcvn35.vcvn7             0                       (Unspecified)
system.ruby.network.sankey.vcvn35.vcvn8             0                       (Unspecified)
system.ruby.network.sankey.vcvn35.vcvn9             0                       (Unspecified)
system.ruby.network.sankey.vcvn4.vcvn0        1548019                       (Unspecified)
system.ruby.network.sankey.vcvn4.vcvn1         341578                       (Unspecified)
system.ruby.network.sankey.vcvn4.vcvn10            10                       (Unspecified)
system.ruby.network.sankey.vcvn4.vcvn11           263                       (Unspecified)
system.ruby.network.sankey.vcvn4.vcvn12             0                       (Unspecified)
system.ruby.network.sankey.vcvn4.vcvn13             0                       (Unspecified)
system.ruby.network.sankey.vcvn4.vcvn14             0                       (Unspecified)
system.ruby.network.sankey.vcvn4.vcvn15             0                       (Unspecified)
system.ruby.network.sankey.vcvn4.vcvn16             0                       (Unspecified)
system.ruby.network.sankey.vcvn4.vcvn17             0                       (Unspecified)
system.ruby.network.sankey.vcvn4.vcvn18             0                       (Unspecified)
system.ruby.network.sankey.vcvn4.vcvn19             0                       (Unspecified)
system.ruby.network.sankey.vcvn4.vcvn2          44825                       (Unspecified)
system.ruby.network.sankey.vcvn4.vcvn20             0                       (Unspecified)
system.ruby.network.sankey.vcvn4.vcvn21             0                       (Unspecified)
system.ruby.network.sankey.vcvn4.vcvn22             0                       (Unspecified)
system.ruby.network.sankey.vcvn4.vcvn23             0                       (Unspecified)
system.ruby.network.sankey.vcvn4.vcvn24             0                       (Unspecified)
system.ruby.network.sankey.vcvn4.vcvn25             0                       (Unspecified)
system.ruby.network.sankey.vcvn4.vcvn26             0                       (Unspecified)
system.ruby.network.sankey.vcvn4.vcvn27             0                       (Unspecified)
system.ruby.network.sankey.vcvn4.vcvn28             0                       (Unspecified)
system.ruby.network.sankey.vcvn4.vcvn29             0                       (Unspecified)
system.ruby.network.sankey.vcvn4.vcvn3           3691                       (Unspecified)
system.ruby.network.sankey.vcvn4.vcvn30             0                       (Unspecified)
system.ruby.network.sankey.vcvn4.vcvn31             0                       (Unspecified)
system.ruby.network.sankey.vcvn4.vcvn32             0                       (Unspecified)
system.ruby.network.sankey.vcvn4.vcvn33             0                       (Unspecified)
system.ruby.network.sankey.vcvn4.vcvn34             0                       (Unspecified)
system.ruby.network.sankey.vcvn4.vcvn35             0                       (Unspecified)
system.ruby.network.sankey.vcvn4.vcvn4            257                       (Unspecified)
system.ruby.network.sankey.vcvn4.vcvn5              8                       (Unspecified)
system.ruby.network.sankey.vcvn4.vcvn6              0                       (Unspecified)
system.ruby.network.sankey.vcvn4.vcvn7              0                       (Unspecified)
system.ruby.network.sankey.vcvn4.vcvn8              0                       (Unspecified)
system.ruby.network.sankey.vcvn4.vcvn9              0                       (Unspecified)
system.ruby.network.sankey.vcvn5.vcvn0        1548158                       (Unspecified)
system.ruby.network.sankey.vcvn5.vcvn1         341354                       (Unspecified)
system.ruby.network.sankey.vcvn5.vcvn10            14                       (Unspecified)
system.ruby.network.sankey.vcvn5.vcvn11           278                       (Unspecified)
system.ruby.network.sankey.vcvn5.vcvn12             0                       (Unspecified)
system.ruby.network.sankey.vcvn5.vcvn13             0                       (Unspecified)
system.ruby.network.sankey.vcvn5.vcvn14             0                       (Unspecified)
system.ruby.network.sankey.vcvn5.vcvn15             0                       (Unspecified)
system.ruby.network.sankey.vcvn5.vcvn16             0                       (Unspecified)
system.ruby.network.sankey.vcvn5.vcvn17             0                       (Unspecified)
system.ruby.network.sankey.vcvn5.vcvn18             0                       (Unspecified)
system.ruby.network.sankey.vcvn5.vcvn19             0                       (Unspecified)
system.ruby.network.sankey.vcvn5.vcvn2          44753                       (Unspecified)
system.ruby.network.sankey.vcvn5.vcvn20             0                       (Unspecified)
system.ruby.network.sankey.vcvn5.vcvn21             0                       (Unspecified)
system.ruby.network.sankey.vcvn5.vcvn22             0                       (Unspecified)
system.ruby.network.sankey.vcvn5.vcvn23             0                       (Unspecified)
system.ruby.network.sankey.vcvn5.vcvn24             0                       (Unspecified)
system.ruby.network.sankey.vcvn5.vcvn25             0                       (Unspecified)
system.ruby.network.sankey.vcvn5.vcvn26             0                       (Unspecified)
system.ruby.network.sankey.vcvn5.vcvn27             0                       (Unspecified)
system.ruby.network.sankey.vcvn5.vcvn28             0                       (Unspecified)
system.ruby.network.sankey.vcvn5.vcvn29             0                       (Unspecified)
system.ruby.network.sankey.vcvn5.vcvn3           3855                       (Unspecified)
system.ruby.network.sankey.vcvn5.vcvn30             0                       (Unspecified)
system.ruby.network.sankey.vcvn5.vcvn31             0                       (Unspecified)
system.ruby.network.sankey.vcvn5.vcvn32             0                       (Unspecified)
system.ruby.network.sankey.vcvn5.vcvn33             0                       (Unspecified)
system.ruby.network.sankey.vcvn5.vcvn34             0                       (Unspecified)
system.ruby.network.sankey.vcvn5.vcvn35             0                       (Unspecified)
system.ruby.network.sankey.vcvn5.vcvn4            222                       (Unspecified)
system.ruby.network.sankey.vcvn5.vcvn5             11                       (Unspecified)
system.ruby.network.sankey.vcvn5.vcvn6              0                       (Unspecified)
system.ruby.network.sankey.vcvn5.vcvn7              0                       (Unspecified)
system.ruby.network.sankey.vcvn5.vcvn8              0                       (Unspecified)
system.ruby.network.sankey.vcvn5.vcvn9              0                       (Unspecified)
system.ruby.network.sankey.vcvn6.vcvn0        1548871                       (Unspecified)
system.ruby.network.sankey.vcvn6.vcvn1         340967                       (Unspecified)
system.ruby.network.sankey.vcvn6.vcvn10            16                       (Unspecified)
system.ruby.network.sankey.vcvn6.vcvn11           277                       (Unspecified)
system.ruby.network.sankey.vcvn6.vcvn12             0                       (Unspecified)
system.ruby.network.sankey.vcvn6.vcvn13             0                       (Unspecified)
system.ruby.network.sankey.vcvn6.vcvn14             0                       (Unspecified)
system.ruby.network.sankey.vcvn6.vcvn15             0                       (Unspecified)
system.ruby.network.sankey.vcvn6.vcvn16             0                       (Unspecified)
system.ruby.network.sankey.vcvn6.vcvn17             0                       (Unspecified)
system.ruby.network.sankey.vcvn6.vcvn18             0                       (Unspecified)
system.ruby.network.sankey.vcvn6.vcvn19             0                       (Unspecified)
system.ruby.network.sankey.vcvn6.vcvn2          44414                       (Unspecified)
system.ruby.network.sankey.vcvn6.vcvn20             0                       (Unspecified)
system.ruby.network.sankey.vcvn6.vcvn21             0                       (Unspecified)
system.ruby.network.sankey.vcvn6.vcvn22             0                       (Unspecified)
system.ruby.network.sankey.vcvn6.vcvn23             0                       (Unspecified)
system.ruby.network.sankey.vcvn6.vcvn24             0                       (Unspecified)
system.ruby.network.sankey.vcvn6.vcvn25             0                       (Unspecified)
system.ruby.network.sankey.vcvn6.vcvn26             0                       (Unspecified)
system.ruby.network.sankey.vcvn6.vcvn27             0                       (Unspecified)
system.ruby.network.sankey.vcvn6.vcvn28             0                       (Unspecified)
system.ruby.network.sankey.vcvn6.vcvn29             0                       (Unspecified)
system.ruby.network.sankey.vcvn6.vcvn3           3854                       (Unspecified)
system.ruby.network.sankey.vcvn6.vcvn30             0                       (Unspecified)
system.ruby.network.sankey.vcvn6.vcvn31             0                       (Unspecified)
system.ruby.network.sankey.vcvn6.vcvn32             0                       (Unspecified)
system.ruby.network.sankey.vcvn6.vcvn33             0                       (Unspecified)
system.ruby.network.sankey.vcvn6.vcvn34             0                       (Unspecified)
system.ruby.network.sankey.vcvn6.vcvn35             0                       (Unspecified)
system.ruby.network.sankey.vcvn6.vcvn4            237                       (Unspecified)
system.ruby.network.sankey.vcvn6.vcvn5              7                       (Unspecified)
system.ruby.network.sankey.vcvn6.vcvn6              0                       (Unspecified)
system.ruby.network.sankey.vcvn6.vcvn7              0                       (Unspecified)
system.ruby.network.sankey.vcvn6.vcvn8              0                       (Unspecified)
system.ruby.network.sankey.vcvn6.vcvn9              0                       (Unspecified)
system.ruby.network.sankey.vcvn7.vcvn0        1547492                       (Unspecified)
system.ruby.network.sankey.vcvn7.vcvn1         342584                       (Unspecified)
system.ruby.network.sankey.vcvn7.vcvn10            24                       (Unspecified)
system.ruby.network.sankey.vcvn7.vcvn11           279                       (Unspecified)
system.ruby.network.sankey.vcvn7.vcvn12             0                       (Unspecified)
system.ruby.network.sankey.vcvn7.vcvn13             0                       (Unspecified)
system.ruby.network.sankey.vcvn7.vcvn14             0                       (Unspecified)
system.ruby.network.sankey.vcvn7.vcvn15             0                       (Unspecified)
system.ruby.network.sankey.vcvn7.vcvn16             0                       (Unspecified)
system.ruby.network.sankey.vcvn7.vcvn17             0                       (Unspecified)
system.ruby.network.sankey.vcvn7.vcvn18             0                       (Unspecified)
system.ruby.network.sankey.vcvn7.vcvn19             0                       (Unspecified)
system.ruby.network.sankey.vcvn7.vcvn2          44250                       (Unspecified)
system.ruby.network.sankey.vcvn7.vcvn20             0                       (Unspecified)
system.ruby.network.sankey.vcvn7.vcvn21             0                       (Unspecified)
system.ruby.network.sankey.vcvn7.vcvn22             0                       (Unspecified)
system.ruby.network.sankey.vcvn7.vcvn23             0                       (Unspecified)
system.ruby.network.sankey.vcvn7.vcvn24             0                       (Unspecified)
system.ruby.network.sankey.vcvn7.vcvn25             0                       (Unspecified)
system.ruby.network.sankey.vcvn7.vcvn26             0                       (Unspecified)
system.ruby.network.sankey.vcvn7.vcvn27             0                       (Unspecified)
system.ruby.network.sankey.vcvn7.vcvn28             0                       (Unspecified)
system.ruby.network.sankey.vcvn7.vcvn29             0                       (Unspecified)
system.ruby.network.sankey.vcvn7.vcvn3           3767                       (Unspecified)
system.ruby.network.sankey.vcvn7.vcvn30             0                       (Unspecified)
system.ruby.network.sankey.vcvn7.vcvn31             0                       (Unspecified)
system.ruby.network.sankey.vcvn7.vcvn32             0                       (Unspecified)
system.ruby.network.sankey.vcvn7.vcvn33             0                       (Unspecified)
system.ruby.network.sankey.vcvn7.vcvn34             0                       (Unspecified)
system.ruby.network.sankey.vcvn7.vcvn35             0                       (Unspecified)
system.ruby.network.sankey.vcvn7.vcvn4            240                       (Unspecified)
system.ruby.network.sankey.vcvn7.vcvn5              4                       (Unspecified)
system.ruby.network.sankey.vcvn7.vcvn6              0                       (Unspecified)
system.ruby.network.sankey.vcvn7.vcvn7              0                       (Unspecified)
system.ruby.network.sankey.vcvn7.vcvn8              0                       (Unspecified)
system.ruby.network.sankey.vcvn7.vcvn9              0                       (Unspecified)
system.ruby.network.sankey.vcvn8.vcvn0        1547792                       (Unspecified)
system.ruby.network.sankey.vcvn8.vcvn1         342283                       (Unspecified)
system.ruby.network.sankey.vcvn8.vcvn10            20                       (Unspecified)
system.ruby.network.sankey.vcvn8.vcvn11           269                       (Unspecified)
system.ruby.network.sankey.vcvn8.vcvn12             0                       (Unspecified)
system.ruby.network.sankey.vcvn8.vcvn13             0                       (Unspecified)
system.ruby.network.sankey.vcvn8.vcvn14             0                       (Unspecified)
system.ruby.network.sankey.vcvn8.vcvn15             0                       (Unspecified)
system.ruby.network.sankey.vcvn8.vcvn16             0                       (Unspecified)
system.ruby.network.sankey.vcvn8.vcvn17             0                       (Unspecified)
system.ruby.network.sankey.vcvn8.vcvn18             0                       (Unspecified)
system.ruby.network.sankey.vcvn8.vcvn19             0                       (Unspecified)
system.ruby.network.sankey.vcvn8.vcvn2          44109                       (Unspecified)
system.ruby.network.sankey.vcvn8.vcvn20             0                       (Unspecified)
system.ruby.network.sankey.vcvn8.vcvn21             0                       (Unspecified)
system.ruby.network.sankey.vcvn8.vcvn22             0                       (Unspecified)
system.ruby.network.sankey.vcvn8.vcvn23             0                       (Unspecified)
system.ruby.network.sankey.vcvn8.vcvn24             0                       (Unspecified)
system.ruby.network.sankey.vcvn8.vcvn25             0                       (Unspecified)
system.ruby.network.sankey.vcvn8.vcvn26             0                       (Unspecified)
system.ruby.network.sankey.vcvn8.vcvn27             0                       (Unspecified)
system.ruby.network.sankey.vcvn8.vcvn28             0                       (Unspecified)
system.ruby.network.sankey.vcvn8.vcvn29             0                       (Unspecified)
system.ruby.network.sankey.vcvn8.vcvn3           3928                       (Unspecified)
system.ruby.network.sankey.vcvn8.vcvn30             0                       (Unspecified)
system.ruby.network.sankey.vcvn8.vcvn31             0                       (Unspecified)
system.ruby.network.sankey.vcvn8.vcvn32             0                       (Unspecified)
system.ruby.network.sankey.vcvn8.vcvn33             0                       (Unspecified)
system.ruby.network.sankey.vcvn8.vcvn34             0                       (Unspecified)
system.ruby.network.sankey.vcvn8.vcvn35             0                       (Unspecified)
system.ruby.network.sankey.vcvn8.vcvn4            218                       (Unspecified)
system.ruby.network.sankey.vcvn8.vcvn5              7                       (Unspecified)
system.ruby.network.sankey.vcvn8.vcvn6              0                       (Unspecified)
system.ruby.network.sankey.vcvn8.vcvn7              0                       (Unspecified)
system.ruby.network.sankey.vcvn8.vcvn8              0                       (Unspecified)
system.ruby.network.sankey.vcvn8.vcvn9              0                       (Unspecified)
system.ruby.network.sankey.vcvn9.vcvn0        1548483                       (Unspecified)
system.ruby.network.sankey.vcvn9.vcvn1         341268                       (Unspecified)
system.ruby.network.sankey.vcvn9.vcvn10            24                       (Unspecified)
system.ruby.network.sankey.vcvn9.vcvn11           278                       (Unspecified)
system.ruby.network.sankey.vcvn9.vcvn12             0                       (Unspecified)
system.ruby.network.sankey.vcvn9.vcvn13             0                       (Unspecified)
system.ruby.network.sankey.vcvn9.vcvn14             0                       (Unspecified)
system.ruby.network.sankey.vcvn9.vcvn15             0                       (Unspecified)
system.ruby.network.sankey.vcvn9.vcvn16             0                       (Unspecified)
system.ruby.network.sankey.vcvn9.vcvn17             0                       (Unspecified)
system.ruby.network.sankey.vcvn9.vcvn18             0                       (Unspecified)
system.ruby.network.sankey.vcvn9.vcvn19             0                       (Unspecified)
system.ruby.network.sankey.vcvn9.vcvn2          44543                       (Unspecified)
system.ruby.network.sankey.vcvn9.vcvn20             0                       (Unspecified)
system.ruby.network.sankey.vcvn9.vcvn21             0                       (Unspecified)
system.ruby.network.sankey.vcvn9.vcvn22             0                       (Unspecified)
system.ruby.network.sankey.vcvn9.vcvn23             0                       (Unspecified)
system.ruby.network.sankey.vcvn9.vcvn24             0                       (Unspecified)
system.ruby.network.sankey.vcvn9.vcvn25             0                       (Unspecified)
system.ruby.network.sankey.vcvn9.vcvn26             0                       (Unspecified)
system.ruby.network.sankey.vcvn9.vcvn27             0                       (Unspecified)
system.ruby.network.sankey.vcvn9.vcvn28             0                       (Unspecified)
system.ruby.network.sankey.vcvn9.vcvn29             0                       (Unspecified)
system.ruby.network.sankey.vcvn9.vcvn3           3801                       (Unspecified)
system.ruby.network.sankey.vcvn9.vcvn30             0                       (Unspecified)
system.ruby.network.sankey.vcvn9.vcvn31             0                       (Unspecified)
system.ruby.network.sankey.vcvn9.vcvn32             0                       (Unspecified)
system.ruby.network.sankey.vcvn9.vcvn33             0                       (Unspecified)
system.ruby.network.sankey.vcvn9.vcvn34             0                       (Unspecified)
system.ruby.network.sankey.vcvn9.vcvn35             0                       (Unspecified)
system.ruby.network.sankey.vcvn9.vcvn4            218                       (Unspecified)
system.ruby.network.sankey.vcvn9.vcvn5              6                       (Unspecified)
system.ruby.network.sankey.vcvn9.vcvn6              0                       (Unspecified)
system.ruby.network.sankey.vcvn9.vcvn7              0                       (Unspecified)
system.ruby.network.sankey.vcvn9.vcvn8              0                       (Unspecified)
system.ruby.network.sankey.vcvn9.vcvn9              0                       (Unspecified)

---------- End Simulation Statistics   ----------
