gem5 Simulator System.  https://www.gem5.org
gem5 is copyrighted software; use the --copyright option for details.

gem5 version 22.0.0.2
gem5 compiled Jun 17 2023 14:31:12
gem5 started Nov 18 2023 15:51:01
gem5 executing on mnemosyne14.ecn.purdue.edu, pid 24059
command line: ./build/Garnet_standalone/gem5.fast -d ./synth_outputs/simple/2b/mixed/mclb_hops_4_6_40cpus_4xdirs_4.0GHz/coh/butter_donut_x/0_19/ configs/auto_top/auto_top_synth.py --topology EscapeVirtualNetworks --noi_routers 20 --sim-cycles 2147483647 --injectionrate 0.19 --noc_clk 4.0GHz --sys-clock 4.0GHz --ruby-clock 4.0GHz --noi_clk 2.7GHz --router_map_file configs/topologies/paper_solutions/butter_donut_x.map --flat_vn_map_file configs/topologies/vn_maps_mclb/butter_donut_x_mclb_hops_4vns.vn --flat_nr_map_file configs/topologies/nr_list_mclb/butter_donut_x_mclb.nrl --ruby --mem_or_coh coh --mem-size 320000000 --num-dirs 160 --num-cpus 40 --network garnet --mem-type SimpleMemory --routing-algorithm 2 --use_escape_vns --synth_traffic --vcs-per-vnet 6 --evn_deadlock_partition 2 --evn_n_deadlock_free 1 --evn_min_n_deadlock_free 4

info: Standard input is not a terminal, disabling listeners.
ingesting configs/topologies/vn_maps_mclb/butter_donut_x_mclb_hops_4vns.vn
cpus(40)=[<m5.objects.GarnetSyntheticTraffic.GarnetSyntheticTraffic object at 0x7f13164bf160>, <m5.objects.GarnetSyntheticTraffic.GarnetSyntheticTraffic object at 0x7f13164bfe10>, <m5.objects.GarnetSyntheticTraffic.GarnetSyntheticTraffic object at 0x7f131603d128>, <m5.objects.GarnetSyntheticTraffic.GarnetSyntheticTraffic object at 0x7f131603d400>, <m5.objects.GarnetSyntheticTraffic.GarnetSyntheticTraffic object at 0x7f131603d6d8>, <m5.objects.GarnetSyntheticTraffic.GarnetSyntheticTraffic object at 0x7f131603d9b0>, <m5.objects.GarnetSyntheticTraffic.GarnetSyntheticTraffic object at 0x7f131603dc88>, <m5.objects.GarnetSyntheticTraffic.GarnetSyntheticTraffic object at 0x7f131603df60>, <m5.objects.GarnetSyntheticTraffic.GarnetSyntheticTraffic object at 0x7f1316046278>, <m5.objects.GarnetSyntheticTraffic.GarnetSyntheticTraffic object at 0x7f1316046550>, <m5.objects.GarnetSyntheticTraffic.GarnetSyntheticTraffic object at 0x7f1316046828>, <m5.objects.GarnetSyntheticTraffic.GarnetSyntheticTraffic object at 0x7f1316046b00>, <m5.objects.GarnetSyntheticTraffic.GarnetSyntheticTraffic object at 0x7f13164bf828>, <m5.objects.GarnetSyntheticTraffic.GarnetSyntheticTraffic object at 0x7f13164afeb8>, <m5.objects.GarnetSyntheticTraffic.GarnetSyntheticTraffic object at 0x7f13164ba710>, <m5.objects.GarnetSyntheticTraffic.GarnetSyntheticTraffic object at 0x7f13164bad68>, <m5.objects.GarnetSyntheticTraffic.GarnetSyntheticTraffic object at 0x7f1316046d68>, <m5.objects.GarnetSyntheticTraffic.GarnetSyntheticTraffic object at 0x7f1316052080>, <m5.objects.GarnetSyntheticTraffic.GarnetSyntheticTraffic object at 0x7f1316052358>, <m5.objects.GarnetSyntheticTraffic.GarnetSyntheticTraffic object at 0x7f1316052630>, <m5.objects.GarnetSyntheticTraffic.GarnetSyntheticTraffic object at 0x7f1316052908>, <m5.objects.GarnetSyntheticTraffic.GarnetSyntheticTraffic object at 0x7f1316052be0>, <m5.objects.GarnetSyntheticTraffic.GarnetSyntheticTraffic object at 0x7f1316052eb8>, <m5.objects.GarnetSyntheticTraffic.GarnetSyntheticTraffic object at 0x7f13160591d0>, <m5.objects.GarnetSyntheticTraffic.GarnetSyntheticTraffic object at 0x7f13160594a8>, <m5.objects.GarnetSyntheticTraffic.GarnetSyntheticTraffic object at 0x7f1316059780>, <m5.objects.GarnetSyntheticTraffic.GarnetSyntheticTraffic object at 0x7f1316059a58>, <m5.objects.GarnetSyntheticTraffic.GarnetSyntheticTraffic object at 0x7f1316059d30>, <m5.objects.GarnetSyntheticTraffic.GarnetSyntheticTraffic object at 0x7f1316061048>, <m5.objects.GarnetSyntheticTraffic.GarnetSyntheticTraffic object at 0x7f1316061320>, <m5.objects.GarnetSyntheticTraffic.GarnetSyntheticTraffic object at 0x7f13160615f8>, <m5.objects.GarnetSyntheticTraffic.GarnetSyntheticTraffic object at 0x7f13160618d0>, <m5.objects.GarnetSyntheticTraffic.GarnetSyntheticTraffic object at 0x7f1316061ba8>, <m5.objects.GarnetSyntheticTraffic.GarnetSyntheticTraffic object at 0x7f1316061e80>, <m5.objects.GarnetSyntheticTraffic.GarnetSyntheticTraffic object at 0x7f131606a198>, <m5.objects.GarnetSyntheticTraffic.GarnetSyntheticTraffic object at 0x7f131606a470>, <m5.objects.GarnetSyntheticTraffic.GarnetSyntheticTraffic object at 0x7f131606a748>, <m5.objects.GarnetSyntheticTraffic.GarnetSyntheticTraffic object at 0x7f131606aa20>, <m5.objects.GarnetSyntheticTraffic.GarnetSyntheticTraffic object at 0x7f131606acf8>, <m5.objects.GarnetSyntheticTraffic.GarnetSyntheticTraffic object at 0x7f131606afd0>])
ingesting configs/topologies/nr_list_mclb/butter_donut_x_mclb.nrl
ingesting configs/topologies/vn_maps_mclb/butter_donut_x_mclb_hops_4vns.vn
ext_cdc_required = True
