gem5 Simulator System.  https://www.gem5.org
gem5 is copyrighted software; use the --copyright option for details.

gem5 version 22.0.0.2
gem5 compiled Jun 17 2023 14:31:12
gem5 started Nov 18 2023 15:49:44
gem5 executing on mnemosyne14.ecn.purdue.edu, pid 23637
command line: ./build/Garnet_standalone/gem5.fast -d ./synth_outputs/simple/2b/mixed/mclb_hops_4_6_40cpus_4xdirs_4.0GHz/coh/lpbt_s_latop/0_17/ configs/auto_top/auto_top_synth.py --topology EscapeVirtualNetworks --noi_routers 20 --sim-cycles 2147483647 --injectionrate 0.17 --noc_clk 4.0GHz --sys-clock 4.0GHz --ruby-clock 4.0GHz --noi_clk 3.6GHz --router_map_file configs/topologies/paper_solutions/lpbt_s_latop.map --flat_vn_map_file configs/topologies/vn_maps_mclb/lpbt_s_latop_mclb_hops_4vns.vn --flat_nr_map_file configs/topologies/nr_list_mclb/lpbt_s_latop_mclb.nrl --ruby --mem_or_coh coh --mem-size 320000000 --num-dirs 160 --num-cpus 40 --network garnet --mem-type SimpleMemory --routing-algorithm 2 --use_escape_vns --synth_traffic --vcs-per-vnet 6 --evn_deadlock_partition 2 --evn_n_deadlock_free 1 --evn_min_n_deadlock_free 4

info: Standard input is not a terminal, disabling listeners.
ingesting configs/topologies/vn_maps_mclb/lpbt_s_latop_mclb_hops_4vns.vn
cpus(40)=[<m5.objects.GarnetSyntheticTraffic.GarnetSyntheticTraffic object at 0x7f0c3e350080>, <m5.objects.GarnetSyntheticTraffic.GarnetSyntheticTraffic object at 0x7f0c3e350e48>, <m5.objects.GarnetSyntheticTraffic.GarnetSyntheticTraffic object at 0x7f0c3decd160>, <m5.objects.GarnetSyntheticTraffic.GarnetSyntheticTraffic object at 0x7f0c3decd438>, <m5.objects.GarnetSyntheticTraffic.GarnetSyntheticTraffic object at 0x7f0c3decd710>, <m5.objects.GarnetSyntheticTraffic.GarnetSyntheticTraffic object at 0x7f0c3decd9e8>, <m5.objects.GarnetSyntheticTraffic.GarnetSyntheticTraffic object at 0x7f0c3decdcc0>, <m5.objects.GarnetSyntheticTraffic.GarnetSyntheticTraffic object at 0x7f0c3decdf98>, <m5.objects.GarnetSyntheticTraffic.GarnetSyntheticTraffic object at 0x7f0c3ded62b0>, <m5.objects.GarnetSyntheticTraffic.GarnetSyntheticTraffic object at 0x7f0c3ded6588>, <m5.objects.GarnetSyntheticTraffic.GarnetSyntheticTraffic object at 0x7f0c3ded6860>, <m5.objects.GarnetSyntheticTraffic.GarnetSyntheticTraffic object at 0x7f0c3ded6b38>, <m5.objects.GarnetSyntheticTraffic.GarnetSyntheticTraffic object at 0x7f0c3e350898>, <m5.objects.GarnetSyntheticTraffic.GarnetSyntheticTraffic object at 0x7f0c3e340eb8>, <m5.objects.GarnetSyntheticTraffic.GarnetSyntheticTraffic object at 0x7f0c3e34a710>, <m5.objects.GarnetSyntheticTraffic.GarnetSyntheticTraffic object at 0x7f0c3e34ad68>, <m5.objects.GarnetSyntheticTraffic.GarnetSyntheticTraffic object at 0x7f0c3ded6da0>, <m5.objects.GarnetSyntheticTraffic.GarnetSyntheticTraffic object at 0x7f0c3dee20b8>, <m5.objects.GarnetSyntheticTraffic.GarnetSyntheticTraffic object at 0x7f0c3dee2390>, <m5.objects.GarnetSyntheticTraffic.GarnetSyntheticTraffic object at 0x7f0c3dee2668>, <m5.objects.GarnetSyntheticTraffic.GarnetSyntheticTraffic object at 0x7f0c3dee2940>, <m5.objects.GarnetSyntheticTraffic.GarnetSyntheticTraffic object at 0x7f0c3dee2c18>, <m5.objects.GarnetSyntheticTraffic.GarnetSyntheticTraffic object at 0x7f0c3dee2ef0>, <m5.objects.GarnetSyntheticTraffic.GarnetSyntheticTraffic object at 0x7f0c3dee9208>, <m5.objects.GarnetSyntheticTraffic.GarnetSyntheticTraffic object at 0x7f0c3dee94e0>, <m5.objects.GarnetSyntheticTraffic.GarnetSyntheticTraffic object at 0x7f0c3dee97b8>, <m5.objects.GarnetSyntheticTraffic.GarnetSyntheticTraffic object at 0x7f0c3dee9a90>, <m5.objects.GarnetSyntheticTraffic.GarnetSyntheticTraffic object at 0x7f0c3dee9d68>, <m5.objects.GarnetSyntheticTraffic.GarnetSyntheticTraffic object at 0x7f0c3def1080>, <m5.objects.GarnetSyntheticTraffic.GarnetSyntheticTraffic object at 0x7f0c3def1358>, <m5.objects.GarnetSyntheticTraffic.GarnetSyntheticTraffic object at 0x7f0c3def1630>, <m5.objects.GarnetSyntheticTraffic.GarnetSyntheticTraffic object at 0x7f0c3def1908>, <m5.objects.GarnetSyntheticTraffic.GarnetSyntheticTraffic object at 0x7f0c3def1be0>, <m5.objects.GarnetSyntheticTraffic.GarnetSyntheticTraffic object at 0x7f0c3def1eb8>, <m5.objects.GarnetSyntheticTraffic.GarnetSyntheticTraffic object at 0x7f0c3defa1d0>, <m5.objects.GarnetSyntheticTraffic.GarnetSyntheticTraffic object at 0x7f0c3defa4a8>, <m5.objects.GarnetSyntheticTraffic.GarnetSyntheticTraffic object at 0x7f0c3defa780>, <m5.objects.GarnetSyntheticTraffic.GarnetSyntheticTraffic object at 0x7f0c3defaa58>, <m5.objects.GarnetSyntheticTraffic.GarnetSyntheticTraffic object at 0x7f0c3defad30>, <m5.objects.GarnetSyntheticTraffic.GarnetSyntheticTraffic object at 0x7f0c3df01048>])
ingesting configs/topologies/nr_list_mclb/lpbt_s_latop_mclb.nrl
ingesting configs/topologies/vn_maps_mclb/lpbt_s_latop_mclb_hops_4vns.vn
ext_cdc_required = True
