
---------- Begin Simulation Statistics ----------
simSeconds                                   0.002147                       # Number of seconds simulated (Second)
simTicks                                   2147483750                       # Number of ticks simulated (Tick)
finalTick                                  2147483750                       # Number of ticks from beginning of simulation (restored from checkpoints and never reset) (Tick)
simFreq                                  1000000000000                       # The number of ticks per simulated second ((Tick/Second))
hostSeconds                                  23495.03                       # Real time elapsed on the host (Second)
hostTickRate                                    91402                       # The number of ticks simulated per host second (ticks/s) ((Tick/Second))
hostMemory                                   48810556                       # Number of bytes of host memory used (Byte)
system.clk_domain.clock                           250                       # Clock period in ticks (Tick)
system.cpu0.power_state.pwrStateResidencyTicks::UNDEFINED   2147483750                       # Cumulative time (in ticks) in various power states (Tick)
system.cpu1.power_state.pwrStateResidencyTicks::UNDEFINED   2147483750                       # Cumulative time (in ticks) in various power states (Tick)
system.cpu10.power_state.pwrStateResidencyTicks::UNDEFINED   2147483750                       # Cumulative time (in ticks) in various power states (Tick)
system.cpu11.power_state.pwrStateResidencyTicks::UNDEFINED   2147483750                       # Cumulative time (in ticks) in various power states (Tick)
system.cpu12.power_state.pwrStateResidencyTicks::UNDEFINED   2147483750                       # Cumulative time (in ticks) in various power states (Tick)
system.cpu13.power_state.pwrStateResidencyTicks::UNDEFINED   2147483750                       # Cumulative time (in ticks) in various power states (Tick)
system.cpu14.power_state.pwrStateResidencyTicks::UNDEFINED   2147483750                       # Cumulative time (in ticks) in various power states (Tick)
system.cpu15.power_state.pwrStateResidencyTicks::UNDEFINED   2147483750                       # Cumulative time (in ticks) in various power states (Tick)
system.cpu16.power_state.pwrStateResidencyTicks::UNDEFINED   2147483750                       # Cumulative time (in ticks) in various power states (Tick)
system.cpu17.power_state.pwrStateResidencyTicks::UNDEFINED   2147483750                       # Cumulative time (in ticks) in various power states (Tick)
system.cpu18.power_state.pwrStateResidencyTicks::UNDEFINED   2147483750                       # Cumulative time (in ticks) in various power states (Tick)
system.cpu19.power_state.pwrStateResidencyTicks::UNDEFINED   2147483750                       # Cumulative time (in ticks) in various power states (Tick)
system.cpu2.power_state.pwrStateResidencyTicks::UNDEFINED   2147483750                       # Cumulative time (in ticks) in various power states (Tick)
system.cpu20.power_state.pwrStateResidencyTicks::UNDEFINED   2147483750                       # Cumulative time (in ticks) in various power states (Tick)
system.cpu21.power_state.pwrStateResidencyTicks::UNDEFINED   2147483750                       # Cumulative time (in ticks) in various power states (Tick)
system.cpu22.power_state.pwrStateResidencyTicks::UNDEFINED   2147483750                       # Cumulative time (in ticks) in various power states (Tick)
system.cpu23.power_state.pwrStateResidencyTicks::UNDEFINED   2147483750                       # Cumulative time (in ticks) in various power states (Tick)
system.cpu24.power_state.pwrStateResidencyTicks::UNDEFINED   2147483750                       # Cumulative time (in ticks) in various power states (Tick)
system.cpu25.power_state.pwrStateResidencyTicks::UNDEFINED   2147483750                       # Cumulative time (in ticks) in various power states (Tick)
system.cpu26.power_state.pwrStateResidencyTicks::UNDEFINED   2147483750                       # Cumulative time (in ticks) in various power states (Tick)
system.cpu27.power_state.pwrStateResidencyTicks::UNDEFINED   2147483750                       # Cumulative time (in ticks) in various power states (Tick)
system.cpu28.power_state.pwrStateResidencyTicks::UNDEFINED   2147483750                       # Cumulative time (in ticks) in various power states (Tick)
system.cpu29.power_state.pwrStateResidencyTicks::UNDEFINED   2147483750                       # Cumulative time (in ticks) in various power states (Tick)
system.cpu3.power_state.pwrStateResidencyTicks::UNDEFINED   2147483750                       # Cumulative time (in ticks) in various power states (Tick)
system.cpu30.power_state.pwrStateResidencyTicks::UNDEFINED   2147483750                       # Cumulative time (in ticks) in various power states (Tick)
system.cpu31.power_state.pwrStateResidencyTicks::UNDEFINED   2147483750                       # Cumulative time (in ticks) in various power states (Tick)
system.cpu32.power_state.pwrStateResidencyTicks::UNDEFINED   2147483750                       # Cumulative time (in ticks) in various power states (Tick)
system.cpu33.power_state.pwrStateResidencyTicks::UNDEFINED   2147483750                       # Cumulative time (in ticks) in various power states (Tick)
system.cpu34.power_state.pwrStateResidencyTicks::UNDEFINED   2147483750                       # Cumulative time (in ticks) in various power states (Tick)
system.cpu35.power_state.pwrStateResidencyTicks::UNDEFINED   2147483750                       # Cumulative time (in ticks) in various power states (Tick)
system.cpu36.power_state.pwrStateResidencyTicks::UNDEFINED   2147483750                       # Cumulative time (in ticks) in various power states (Tick)
system.cpu37.power_state.pwrStateResidencyTicks::UNDEFINED   2147483750                       # Cumulative time (in ticks) in various power states (Tick)
system.cpu38.power_state.pwrStateResidencyTicks::UNDEFINED   2147483750                       # Cumulative time (in ticks) in various power states (Tick)
system.cpu39.power_state.pwrStateResidencyTicks::UNDEFINED   2147483750                       # Cumulative time (in ticks) in various power states (Tick)
system.cpu4.power_state.pwrStateResidencyTicks::UNDEFINED   2147483750                       # Cumulative time (in ticks) in various power states (Tick)
system.cpu40.power_state.pwrStateResidencyTicks::UNDEFINED   2147483750                       # Cumulative time (in ticks) in various power states (Tick)
system.cpu41.power_state.pwrStateResidencyTicks::UNDEFINED   2147483750                       # Cumulative time (in ticks) in various power states (Tick)
system.cpu42.power_state.pwrStateResidencyTicks::UNDEFINED   2147483750                       # Cumulative time (in ticks) in various power states (Tick)
system.cpu43.power_state.pwrStateResidencyTicks::UNDEFINED   2147483750                       # Cumulative time (in ticks) in various power states (Tick)
system.cpu44.power_state.pwrStateResidencyTicks::UNDEFINED   2147483750                       # Cumulative time (in ticks) in various power states (Tick)
system.cpu45.power_state.pwrStateResidencyTicks::UNDEFINED   2147483750                       # Cumulative time (in ticks) in various power states (Tick)
system.cpu46.power_state.pwrStateResidencyTicks::UNDEFINED   2147483750                       # Cumulative time (in ticks) in various power states (Tick)
system.cpu47.power_state.pwrStateResidencyTicks::UNDEFINED   2147483750                       # Cumulative time (in ticks) in various power states (Tick)
system.cpu48.power_state.pwrStateResidencyTicks::UNDEFINED   2147483750                       # Cumulative time (in ticks) in various power states (Tick)
system.cpu49.power_state.pwrStateResidencyTicks::UNDEFINED   2147483750                       # Cumulative time (in ticks) in various power states (Tick)
system.cpu5.power_state.pwrStateResidencyTicks::UNDEFINED   2147483750                       # Cumulative time (in ticks) in various power states (Tick)
system.cpu50.power_state.pwrStateResidencyTicks::UNDEFINED   2147483750                       # Cumulative time (in ticks) in various power states (Tick)
system.cpu51.power_state.pwrStateResidencyTicks::UNDEFINED   2147483750                       # Cumulative time (in ticks) in various power states (Tick)
system.cpu52.power_state.pwrStateResidencyTicks::UNDEFINED   2147483750                       # Cumulative time (in ticks) in various power states (Tick)
system.cpu53.power_state.pwrStateResidencyTicks::UNDEFINED   2147483750                       # Cumulative time (in ticks) in various power states (Tick)
system.cpu54.power_state.pwrStateResidencyTicks::UNDEFINED   2147483750                       # Cumulative time (in ticks) in various power states (Tick)
system.cpu55.power_state.pwrStateResidencyTicks::UNDEFINED   2147483750                       # Cumulative time (in ticks) in various power states (Tick)
system.cpu56.power_state.pwrStateResidencyTicks::UNDEFINED   2147483750                       # Cumulative time (in ticks) in various power states (Tick)
system.cpu57.power_state.pwrStateResidencyTicks::UNDEFINED   2147483750                       # Cumulative time (in ticks) in various power states (Tick)
system.cpu58.power_state.pwrStateResidencyTicks::UNDEFINED   2147483750                       # Cumulative time (in ticks) in various power states (Tick)
system.cpu59.power_state.pwrStateResidencyTicks::UNDEFINED   2147483750                       # Cumulative time (in ticks) in various power states (Tick)
system.cpu6.power_state.pwrStateResidencyTicks::UNDEFINED   2147483750                       # Cumulative time (in ticks) in various power states (Tick)
system.cpu60.power_state.pwrStateResidencyTicks::UNDEFINED   2147483750                       # Cumulative time (in ticks) in various power states (Tick)
system.cpu61.power_state.pwrStateResidencyTicks::UNDEFINED   2147483750                       # Cumulative time (in ticks) in various power states (Tick)
system.cpu62.power_state.pwrStateResidencyTicks::UNDEFINED   2147483750                       # Cumulative time (in ticks) in various power states (Tick)
system.cpu63.power_state.pwrStateResidencyTicks::UNDEFINED   2147483750                       # Cumulative time (in ticks) in various power states (Tick)
system.cpu7.power_state.pwrStateResidencyTicks::UNDEFINED   2147483750                       # Cumulative time (in ticks) in various power states (Tick)
system.cpu8.power_state.pwrStateResidencyTicks::UNDEFINED   2147483750                       # Cumulative time (in ticks) in various power states (Tick)
system.cpu9.power_state.pwrStateResidencyTicks::UNDEFINED   2147483750                       # Cumulative time (in ticks) in various power states (Tick)
system.mem_ctrls0.power_state.pwrStateResidencyTicks::UNDEFINED   2147483750                       # Cumulative time (in ticks) in various power states (Tick)
system.mem_ctrls1.power_state.pwrStateResidencyTicks::UNDEFINED   2147483750                       # Cumulative time (in ticks) in various power states (Tick)
system.mem_ctrls10.power_state.pwrStateResidencyTicks::UNDEFINED   2147483750                       # Cumulative time (in ticks) in various power states (Tick)
system.mem_ctrls11.power_state.pwrStateResidencyTicks::UNDEFINED   2147483750                       # Cumulative time (in ticks) in various power states (Tick)
system.mem_ctrls12.power_state.pwrStateResidencyTicks::UNDEFINED   2147483750                       # Cumulative time (in ticks) in various power states (Tick)
system.mem_ctrls13.power_state.pwrStateResidencyTicks::UNDEFINED   2147483750                       # Cumulative time (in ticks) in various power states (Tick)
system.mem_ctrls14.power_state.pwrStateResidencyTicks::UNDEFINED   2147483750                       # Cumulative time (in ticks) in various power states (Tick)
system.mem_ctrls15.power_state.pwrStateResidencyTicks::UNDEFINED   2147483750                       # Cumulative time (in ticks) in various power states (Tick)
system.mem_ctrls16.power_state.pwrStateResidencyTicks::UNDEFINED   2147483750                       # Cumulative time (in ticks) in various power states (Tick)
system.mem_ctrls17.power_state.pwrStateResidencyTicks::UNDEFINED   2147483750                       # Cumulative time (in ticks) in various power states (Tick)
system.mem_ctrls18.power_state.pwrStateResidencyTicks::UNDEFINED   2147483750                       # Cumulative time (in ticks) in various power states (Tick)
system.mem_ctrls19.power_state.pwrStateResidencyTicks::UNDEFINED   2147483750                       # Cumulative time (in ticks) in various power states (Tick)
system.mem_ctrls2.power_state.pwrStateResidencyTicks::UNDEFINED   2147483750                       # Cumulative time (in ticks) in various power states (Tick)
system.mem_ctrls20.power_state.pwrStateResidencyTicks::UNDEFINED   2147483750                       # Cumulative time (in ticks) in various power states (Tick)
system.mem_ctrls21.power_state.pwrStateResidencyTicks::UNDEFINED   2147483750                       # Cumulative time (in ticks) in various power states (Tick)
system.mem_ctrls22.power_state.pwrStateResidencyTicks::UNDEFINED   2147483750                       # Cumulative time (in ticks) in various power states (Tick)
system.mem_ctrls23.power_state.pwrStateResidencyTicks::UNDEFINED   2147483750                       # Cumulative time (in ticks) in various power states (Tick)
system.mem_ctrls24.power_state.pwrStateResidencyTicks::UNDEFINED   2147483750                       # Cumulative time (in ticks) in various power states (Tick)
system.mem_ctrls25.power_state.pwrStateResidencyTicks::UNDEFINED   2147483750                       # Cumulative time (in ticks) in various power states (Tick)
system.mem_ctrls26.power_state.pwrStateResidencyTicks::UNDEFINED   2147483750                       # Cumulative time (in ticks) in various power states (Tick)
system.mem_ctrls27.power_state.pwrStateResidencyTicks::UNDEFINED   2147483750                       # Cumulative time (in ticks) in various power states (Tick)
system.mem_ctrls28.power_state.pwrStateResidencyTicks::UNDEFINED   2147483750                       # Cumulative time (in ticks) in various power states (Tick)
system.mem_ctrls29.power_state.pwrStateResidencyTicks::UNDEFINED   2147483750                       # Cumulative time (in ticks) in various power states (Tick)
system.mem_ctrls3.power_state.pwrStateResidencyTicks::UNDEFINED   2147483750                       # Cumulative time (in ticks) in various power states (Tick)
system.mem_ctrls30.power_state.pwrStateResidencyTicks::UNDEFINED   2147483750                       # Cumulative time (in ticks) in various power states (Tick)
system.mem_ctrls31.power_state.pwrStateResidencyTicks::UNDEFINED   2147483750                       # Cumulative time (in ticks) in various power states (Tick)
system.mem_ctrls32.power_state.pwrStateResidencyTicks::UNDEFINED   2147483750                       # Cumulative time (in ticks) in various power states (Tick)
system.mem_ctrls33.power_state.pwrStateResidencyTicks::UNDEFINED   2147483750                       # Cumulative time (in ticks) in various power states (Tick)
system.mem_ctrls34.power_state.pwrStateResidencyTicks::UNDEFINED   2147483750                       # Cumulative time (in ticks) in various power states (Tick)
system.mem_ctrls35.power_state.pwrStateResidencyTicks::UNDEFINED   2147483750                       # Cumulative time (in ticks) in various power states (Tick)
system.mem_ctrls36.power_state.pwrStateResidencyTicks::UNDEFINED   2147483750                       # Cumulative time (in ticks) in various power states (Tick)
system.mem_ctrls37.power_state.pwrStateResidencyTicks::UNDEFINED   2147483750                       # Cumulative time (in ticks) in various power states (Tick)
system.mem_ctrls38.power_state.pwrStateResidencyTicks::UNDEFINED   2147483750                       # Cumulative time (in ticks) in various power states (Tick)
system.mem_ctrls39.power_state.pwrStateResidencyTicks::UNDEFINED   2147483750                       # Cumulative time (in ticks) in various power states (Tick)
system.mem_ctrls4.power_state.pwrStateResidencyTicks::UNDEFINED   2147483750                       # Cumulative time (in ticks) in various power states (Tick)
system.mem_ctrls40.power_state.pwrStateResidencyTicks::UNDEFINED   2147483750                       # Cumulative time (in ticks) in various power states (Tick)
system.mem_ctrls41.power_state.pwrStateResidencyTicks::UNDEFINED   2147483750                       # Cumulative time (in ticks) in various power states (Tick)
system.mem_ctrls42.power_state.pwrStateResidencyTicks::UNDEFINED   2147483750                       # Cumulative time (in ticks) in various power states (Tick)
system.mem_ctrls43.power_state.pwrStateResidencyTicks::UNDEFINED   2147483750                       # Cumulative time (in ticks) in various power states (Tick)
system.mem_ctrls44.power_state.pwrStateResidencyTicks::UNDEFINED   2147483750                       # Cumulative time (in ticks) in various power states (Tick)
system.mem_ctrls45.power_state.pwrStateResidencyTicks::UNDEFINED   2147483750                       # Cumulative time (in ticks) in various power states (Tick)
system.mem_ctrls46.power_state.pwrStateResidencyTicks::UNDEFINED   2147483750                       # Cumulative time (in ticks) in various power states (Tick)
system.mem_ctrls47.power_state.pwrStateResidencyTicks::UNDEFINED   2147483750                       # Cumulative time (in ticks) in various power states (Tick)
system.mem_ctrls48.power_state.pwrStateResidencyTicks::UNDEFINED   2147483750                       # Cumulative time (in ticks) in various power states (Tick)
system.mem_ctrls49.power_state.pwrStateResidencyTicks::UNDEFINED   2147483750                       # Cumulative time (in ticks) in various power states (Tick)
system.mem_ctrls5.power_state.pwrStateResidencyTicks::UNDEFINED   2147483750                       # Cumulative time (in ticks) in various power states (Tick)
system.mem_ctrls50.power_state.pwrStateResidencyTicks::UNDEFINED   2147483750                       # Cumulative time (in ticks) in various power states (Tick)
system.mem_ctrls51.power_state.pwrStateResidencyTicks::UNDEFINED   2147483750                       # Cumulative time (in ticks) in various power states (Tick)
system.mem_ctrls52.power_state.pwrStateResidencyTicks::UNDEFINED   2147483750                       # Cumulative time (in ticks) in various power states (Tick)
system.mem_ctrls53.power_state.pwrStateResidencyTicks::UNDEFINED   2147483750                       # Cumulative time (in ticks) in various power states (Tick)
system.mem_ctrls54.power_state.pwrStateResidencyTicks::UNDEFINED   2147483750                       # Cumulative time (in ticks) in various power states (Tick)
system.mem_ctrls55.power_state.pwrStateResidencyTicks::UNDEFINED   2147483750                       # Cumulative time (in ticks) in various power states (Tick)
system.mem_ctrls56.power_state.pwrStateResidencyTicks::UNDEFINED   2147483750                       # Cumulative time (in ticks) in various power states (Tick)
system.mem_ctrls57.power_state.pwrStateResidencyTicks::UNDEFINED   2147483750                       # Cumulative time (in ticks) in various power states (Tick)
system.mem_ctrls58.power_state.pwrStateResidencyTicks::UNDEFINED   2147483750                       # Cumulative time (in ticks) in various power states (Tick)
system.mem_ctrls59.power_state.pwrStateResidencyTicks::UNDEFINED   2147483750                       # Cumulative time (in ticks) in various power states (Tick)
system.mem_ctrls6.power_state.pwrStateResidencyTicks::UNDEFINED   2147483750                       # Cumulative time (in ticks) in various power states (Tick)
system.mem_ctrls60.power_state.pwrStateResidencyTicks::UNDEFINED   2147483750                       # Cumulative time (in ticks) in various power states (Tick)
system.mem_ctrls61.power_state.pwrStateResidencyTicks::UNDEFINED   2147483750                       # Cumulative time (in ticks) in various power states (Tick)
system.mem_ctrls62.power_state.pwrStateResidencyTicks::UNDEFINED   2147483750                       # Cumulative time (in ticks) in various power states (Tick)
system.mem_ctrls63.power_state.pwrStateResidencyTicks::UNDEFINED   2147483750                       # Cumulative time (in ticks) in various power states (Tick)
system.mem_ctrls7.power_state.pwrStateResidencyTicks::UNDEFINED   2147483750                       # Cumulative time (in ticks) in various power states (Tick)
system.mem_ctrls8.power_state.pwrStateResidencyTicks::UNDEFINED   2147483750                       # Cumulative time (in ticks) in various power states (Tick)
system.mem_ctrls9.power_state.pwrStateResidencyTicks::UNDEFINED   2147483750                       # Cumulative time (in ticks) in various power states (Tick)
system.ruby.m_outstandReqHistSeqr::bucket_size            1                       (Unspecified)
system.ruby.m_outstandReqHistSeqr::max_bucket            9                       (Unspecified)
system.ruby.m_outstandReqHistSeqr::samples    104359169                       (Unspecified)
system.ruby.m_outstandReqHistSeqr::mean             1                       (Unspecified)
system.ruby.m_outstandReqHistSeqr::gmean            1                       (Unspecified)
system.ruby.m_outstandReqHistSeqr        |           0      0.00%      0.00% |   104359169    100.00%    100.00% |           0      0.00%    100.00% |           0      0.00%    100.00% |           0      0.00%    100.00% |           0      0.00%    100.00% |           0      0.00%    100.00% |           0      0.00%    100.00% |           0      0.00%    100.00% |           0      0.00%    100.00% (Unspecified)
system.ruby.m_outstandReqHistSeqr::total    104359169                       (Unspecified)
system.ruby.m_latencyHistSeqr::bucket_size            1                       (Unspecified)
system.ruby.m_latencyHistSeqr::max_bucket            9                       (Unspecified)
system.ruby.m_latencyHistSeqr::samples      104359154                       (Unspecified)
system.ruby.m_latencyHistSeqr::mean                 1                       (Unspecified)
system.ruby.m_latencyHistSeqr::gmean                1                       (Unspecified)
system.ruby.m_latencyHistSeqr            |           0      0.00%      0.00% |   104359154    100.00%    100.00% |           0      0.00%    100.00% |           0      0.00%    100.00% |           0      0.00%    100.00% |           0      0.00%    100.00% |           0      0.00%    100.00% |           0      0.00%    100.00% |           0      0.00%    100.00% |           0      0.00%    100.00% (Unspecified)
system.ruby.m_latencyHistSeqr::total        104359154                       (Unspecified)
system.ruby.m_hitLatencyHistSeqr::bucket_size            1                       (Unspecified)
system.ruby.m_hitLatencyHistSeqr::max_bucket            9                       (Unspecified)
system.ruby.m_hitLatencyHistSeqr::samples    104359154                       (Unspecified)
system.ruby.m_hitLatencyHistSeqr::mean              1                       (Unspecified)
system.ruby.m_hitLatencyHistSeqr::gmean             1                       (Unspecified)
system.ruby.m_hitLatencyHistSeqr         |           0      0.00%      0.00% |   104359154    100.00%    100.00% |           0      0.00%    100.00% |           0      0.00%    100.00% |           0      0.00%    100.00% |           0      0.00%    100.00% |           0      0.00%    100.00% |           0      0.00%    100.00% |           0      0.00%    100.00% |           0      0.00%    100.00% (Unspecified)
system.ruby.m_hitLatencyHistSeqr::total     104359154                       (Unspecified)
system.ruby.Directory_Controller.Receive_Request |      542815      1.56%      1.56% |      543691      1.56%      3.12% |      543468      1.56%      4.69% |      544572      1.57%      6.25% |      543153      1.56%      7.81% |      543845      1.56%      9.38% |      541398      1.56%     10.93% |      543921      1.56%     12.50% |      543830      1.56%     14.06% |      543363      1.56%     15.62% |      543666      1.56%     17.19% |      544917      1.57%     18.75% |      543280      1.56%     20.31% |      543035      1.56%     21.87% |      543160      1.56%     23.44% |      543731      1.56%     25.00% |      542831      1.56%     26.56% |      544749      1.57%     28.13% |      544382      1.57%     29.69% |      543250      1.56%     31.25% |      543703      1.56%     32.82% |      542951      1.56%     34.38% |      543822      1.56%     35.94% |      543090      1.56%     37.50% |      542346      1.56%     39.06% |      542172      1.56%     40.62% |      544125      1.56%     42.18% |      542232      1.56%     43.74% |      544425      1.57%     45.31% |      542510      1.56%     46.87% |      545262      1.57%     48.43% |      542407      1.56%     49.99% |      543772      1.56%     51.56% |      543684      1.56%     53.12% |      544242      1.56%     54.69% |      544476      1.57%     56.25% |      543500      1.56%     57.81% |      544112      1.56%     59.38% |      542042      1.56%     60.94% |      543857      1.56%     62.50% |      543395      1.56%     64.06% |      542679      1.56%     65.62% |      544315      1.56%     67.19% |      544561      1.57%     68.75% |      543962      1.56%     70.32% |      543563      1.56%     71.88% |      543024      1.56%     73.44% |      543411      1.56%     75.00% |      543172      1.56%     76.56% |      544572      1.57%     78.13% |      544226      1.56%     79.69% |      543403      1.56%     81.26% |      543832      1.56%     82.82% |      543439      1.56%     84.38% |      542781      1.56%     85.94% |      542736      1.56%     87.50% |      543473      1.56%     89.06% |      542348      1.56%     90.62% |      543490      1.56%     92.19% |      542974      1.56%     93.75% |      543743      1.56%     95.31% |      543578      1.56%     96.87% |      543925      1.56%     98.44% |      543898      1.56%    100.00% (Unspecified)
system.ruby.Directory_Controller.Receive_Request::total     34784287                       (Unspecified)
system.ruby.Directory_Controller.Receive_Forward |      544692      1.57%      1.57% |      543108      1.56%      3.13% |      544257      1.56%      4.69% |      543856      1.56%      6.25% |      543396      1.56%      7.82% |      542358      1.56%      9.38% |      542786      1.56%     10.94% |      543406      1.56%     12.50% |      544719      1.57%     14.06% |      543411      1.56%     15.63% |      544692      1.57%     17.19% |      543037      1.56%     18.75% |      542074      1.56%     20.31% |      545349      1.57%     21.88% |      543139      1.56%     23.44% |      543795      1.56%     25.00% |      544560      1.57%     26.57% |      543092      1.56%     28.13% |      542769      1.56%     29.69% |      543788      1.56%     31.25% |      544151      1.56%     32.82% |      543939      1.56%     34.38% |      542075      1.56%     35.94% |      543656      1.56%     37.50% |      543666      1.56%     39.07% |      543503      1.56%     40.63% |      542811      1.56%     42.19% |      542672      1.56%     43.75% |      543171      1.56%     45.31% |      542615      1.56%     46.87% |      543637      1.56%     48.43% |      543969      1.56%     50.00% |      543473      1.56%     51.56% |      543417      1.56%     53.12% |      544120      1.56%     54.68% |      541871      1.56%     56.24% |      542836      1.56%     57.80% |      545083      1.57%     59.37% |      544067      1.56%     60.93% |      543463      1.56%     62.50% |      545013      1.57%     64.06% |      543778      1.56%     65.63% |      544198      1.56%     67.19% |      542972      1.56%     68.75% |      542783      1.56%     70.31% |      544547      1.57%     71.88% |      542992      1.56%     73.44% |      542470      1.56%     75.00% |      543253      1.56%     76.56% |      543801      1.56%     78.12% |      543328      1.56%     79.68% |      544655      1.57%     81.25% |      542980      1.56%     82.81% |      543346      1.56%     84.37% |      542919      1.56%     85.93% |      543067      1.56%     87.49% |      543825      1.56%     89.06% |      542212      1.56%     90.62% |      544987      1.57%     92.18% |      543162      1.56%     93.74% |      544200      1.56%     95.31% |      545365      1.57%     96.88% |      544399      1.56%     98.44% |      542564      1.56%    100.00% (Unspecified)
system.ruby.Directory_Controller.Receive_Forward::total     34787295                       (Unspecified)
system.ruby.Directory_Controller.Receive_Response |      133155      1.56%      1.56% |      132692      1.56%      3.12% |      133213      1.56%      4.68% |      132829      1.56%      6.24% |      132972      1.56%      7.80% |      132722      1.56%      9.36% |      132626      1.56%     10.91% |      132597      1.56%     12.47% |      133307      1.56%     14.03% |      132901      1.56%     15.59% |      133214      1.56%     17.16% |      133778      1.57%     18.73% |      133503      1.57%     20.29% |      133425      1.57%     21.86% |      133488      1.57%     23.42% |      133012      1.56%     24.99% |      133213      1.56%     26.55% |      133010      1.56%     28.11% |      132839      1.56%     29.67% |      132709      1.56%     31.22% |      133488      1.57%     32.79% |      133148      1.56%     34.35% |      133359      1.56%     35.92% |      132731      1.56%     37.48% |      133530      1.57%     39.04% |      133707      1.57%     40.61% |      133032      1.56%     42.17% |      132982      1.56%     43.73% |      133121      1.56%     45.29% |      133079      1.56%     46.86% |      133048      1.56%     48.42% |      133216      1.56%     49.98% |      133966      1.57%     51.55% |      132847      1.56%     53.11% |      132861      1.56%     54.67% |      133440      1.57%     56.23% |      133599      1.57%     57.80% |      133296      1.56%     59.37% |      133080      1.56%     60.93% |      133516      1.57%     62.49% |      133393      1.57%     64.06% |      133042      1.56%     65.62% |      133793      1.57%     67.19% |      132804      1.56%     68.75% |      132793      1.56%     70.31% |      133121      1.56%     71.87% |      133194      1.56%     73.43% |      132627      1.56%     74.99% |      133170      1.56%     76.55% |      133845      1.57%     78.12% |      133094      1.56%     79.68% |      133372      1.56%     81.25% |      132844      1.56%     82.81% |      133091      1.56%     84.37% |      133665      1.57%     85.94% |      133363      1.56%     87.50% |      132686      1.56%     89.06% |      133934      1.57%     90.63% |      133222      1.56%     92.19% |      133187      1.56%     93.75% |      133257      1.56%     95.32% |      132913      1.56%     96.88% |      132683      1.56%     98.43% |      133398      1.57%    100.00% (Unspecified)
system.ruby.Directory_Controller.Receive_Response::total      8522742                       (Unspecified)
system.ruby.Directory_Controller.I.Receive_Request |      542815      1.56%      1.56% |      543691      1.56%      3.12% |      543468      1.56%      4.69% |      544572      1.57%      6.25% |      543153      1.56%      7.81% |      543845      1.56%      9.38% |      541398      1.56%     10.93% |      543921      1.56%     12.50% |      543830      1.56%     14.06% |      543363      1.56%     15.62% |      543666      1.56%     17.19% |      544917      1.57%     18.75% |      543280      1.56%     20.31% |      543035      1.56%     21.87% |      543160      1.56%     23.44% |      543731      1.56%     25.00% |      542831      1.56%     26.56% |      544749      1.57%     28.13% |      544382      1.57%     29.69% |      543250      1.56%     31.25% |      543703      1.56%     32.82% |      542951      1.56%     34.38% |      543822      1.56%     35.94% |      543090      1.56%     37.50% |      542346      1.56%     39.06% |      542172      1.56%     40.62% |      544125      1.56%     42.18% |      542232      1.56%     43.74% |      544425      1.57%     45.31% |      542510      1.56%     46.87% |      545262      1.57%     48.43% |      542407      1.56%     49.99% |      543772      1.56%     51.56% |      543684      1.56%     53.12% |      544242      1.56%     54.69% |      544476      1.57%     56.25% |      543500      1.56%     57.81% |      544112      1.56%     59.38% |      542042      1.56%     60.94% |      543857      1.56%     62.50% |      543395      1.56%     64.06% |      542679      1.56%     65.62% |      544315      1.56%     67.19% |      544561      1.57%     68.75% |      543962      1.56%     70.32% |      543563      1.56%     71.88% |      543024      1.56%     73.44% |      543411      1.56%     75.00% |      543172      1.56%     76.56% |      544572      1.57%     78.13% |      544226      1.56%     79.69% |      543403      1.56%     81.26% |      543832      1.56%     82.82% |      543439      1.56%     84.38% |      542781      1.56%     85.94% |      542736      1.56%     87.50% |      543473      1.56%     89.06% |      542348      1.56%     90.62% |      543490      1.56%     92.19% |      542974      1.56%     93.75% |      543743      1.56%     95.31% |      543578      1.56%     96.87% |      543925      1.56%     98.44% |      543898      1.56%    100.00% (Unspecified)
system.ruby.Directory_Controller.I.Receive_Request::total     34784287                       (Unspecified)
system.ruby.Directory_Controller.I.Receive_Forward |      544692      1.57%      1.57% |      543108      1.56%      3.13% |      544257      1.56%      4.69% |      543856      1.56%      6.25% |      543396      1.56%      7.82% |      542358      1.56%      9.38% |      542786      1.56%     10.94% |      543406      1.56%     12.50% |      544719      1.57%     14.06% |      543411      1.56%     15.63% |      544692      1.57%     17.19% |      543037      1.56%     18.75% |      542074      1.56%     20.31% |      545349      1.57%     21.88% |      543139      1.56%     23.44% |      543795      1.56%     25.00% |      544560      1.57%     26.57% |      543092      1.56%     28.13% |      542769      1.56%     29.69% |      543788      1.56%     31.25% |      544151      1.56%     32.82% |      543939      1.56%     34.38% |      542075      1.56%     35.94% |      543656      1.56%     37.50% |      543666      1.56%     39.07% |      543503      1.56%     40.63% |      542811      1.56%     42.19% |      542672      1.56%     43.75% |      543171      1.56%     45.31% |      542615      1.56%     46.87% |      543637      1.56%     48.43% |      543969      1.56%     50.00% |      543473      1.56%     51.56% |      543417      1.56%     53.12% |      544120      1.56%     54.68% |      541871      1.56%     56.24% |      542836      1.56%     57.80% |      545083      1.57%     59.37% |      544067      1.56%     60.93% |      543463      1.56%     62.50% |      545013      1.57%     64.06% |      543778      1.56%     65.63% |      544198      1.56%     67.19% |      542972      1.56%     68.75% |      542783      1.56%     70.31% |      544547      1.57%     71.88% |      542992      1.56%     73.44% |      542470      1.56%     75.00% |      543253      1.56%     76.56% |      543801      1.56%     78.12% |      543328      1.56%     79.68% |      544655      1.57%     81.25% |      542980      1.56%     82.81% |      543346      1.56%     84.37% |      542919      1.56%     85.93% |      543067      1.56%     87.49% |      543825      1.56%     89.06% |      542212      1.56%     90.62% |      544987      1.57%     92.18% |      543162      1.56%     93.74% |      544200      1.56%     95.31% |      545365      1.57%     96.88% |      544399      1.56%     98.44% |      542564      1.56%    100.00% (Unspecified)
system.ruby.Directory_Controller.I.Receive_Forward::total     34787295                       (Unspecified)
system.ruby.Directory_Controller.I.Receive_Response |      133155      1.56%      1.56% |      132692      1.56%      3.12% |      133213      1.56%      4.68% |      132829      1.56%      6.24% |      132972      1.56%      7.80% |      132722      1.56%      9.36% |      132626      1.56%     10.91% |      132597      1.56%     12.47% |      133307      1.56%     14.03% |      132901      1.56%     15.59% |      133214      1.56%     17.16% |      133778      1.57%     18.73% |      133503      1.57%     20.29% |      133425      1.57%     21.86% |      133488      1.57%     23.42% |      133012      1.56%     24.99% |      133213      1.56%     26.55% |      133010      1.56%     28.11% |      132839      1.56%     29.67% |      132709      1.56%     31.22% |      133488      1.57%     32.79% |      133148      1.56%     34.35% |      133359      1.56%     35.92% |      132731      1.56%     37.48% |      133530      1.57%     39.04% |      133707      1.57%     40.61% |      133032      1.56%     42.17% |      132982      1.56%     43.73% |      133121      1.56%     45.29% |      133079      1.56%     46.86% |      133048      1.56%     48.42% |      133216      1.56%     49.98% |      133966      1.57%     51.55% |      132847      1.56%     53.11% |      132861      1.56%     54.67% |      133440      1.57%     56.23% |      133599      1.57%     57.80% |      133296      1.56%     59.37% |      133080      1.56%     60.93% |      133516      1.57%     62.49% |      133393      1.57%     64.06% |      133042      1.56%     65.62% |      133793      1.57%     67.19% |      132804      1.56%     68.75% |      132793      1.56%     70.31% |      133121      1.56%     71.87% |      133194      1.56%     73.43% |      132627      1.56%     74.99% |      133170      1.56%     76.55% |      133845      1.57%     78.12% |      133094      1.56%     79.68% |      133372      1.56%     81.25% |      132844      1.56%     82.81% |      133091      1.56%     84.37% |      133665      1.57%     85.94% |      133363      1.56%     87.50% |      132686      1.56%     89.06% |      133934      1.57%     90.63% |      133222      1.56%     92.19% |      133187      1.56%     93.75% |      133257      1.56%     95.32% |      132913      1.56%     96.88% |      132683      1.56%     98.43% |      133398      1.57%    100.00% (Unspecified)
system.ruby.Directory_Controller.I.Receive_Response::total      8522742                       (Unspecified)
system.ruby.L1Cache_Controller.Request   |      543532      1.56%      1.56% |      544006      1.56%      3.13% |      542621      1.56%      4.69% |      544543      1.57%      6.25% |      542869      1.56%      7.81% |      544482      1.57%      9.38% |      542615      1.56%     10.94% |      544160      1.56%     12.50% |      543867      1.56%     14.07% |      542712      1.56%     15.63% |      543340      1.56%     17.19% |      543421      1.56%     18.75% |      543178      1.56%     20.31% |      543609      1.56%     21.87% |      544003      1.56%     23.44% |      542132      1.56%     25.00% |      542554      1.56%     26.56% |      544747      1.57%     28.12% |      542970      1.56%     29.68% |      544319      1.56%     31.25% |      543111      1.56%     32.81% |      543032      1.56%     34.37% |      543369      1.56%     35.93% |      543915      1.56%     37.50% |      543587      1.56%     39.06% |      543307      1.56%     40.62% |      544374      1.56%     42.19% |      543119      1.56%     43.75% |      543877      1.56%     45.31% |      544016      1.56%     46.88% |      543665      1.56%     48.44% |      544229      1.56%     50.00% |      543649      1.56%     51.57% |      542618      1.56%     53.13% |      542587      1.56%     54.69% |      542998      1.56%     56.25% |      544092      1.56%     57.81% |      543230      1.56%     59.37% |      542604      1.56%     60.93% |      545210      1.57%     62.50% |      544262      1.56%     64.06% |      543342      1.56%     65.63% |      543177      1.56%     67.19% |      544121      1.56%     68.75% |      543514      1.56%     70.32% |      543932      1.56%     71.88% |      543593      1.56%     73.44% |      543681      1.56%     75.00% |      543223      1.56%     76.57% |      543239      1.56%     78.13% |      543833      1.56%     79.69% |      543611      1.56%     81.25% |      543321      1.56%     82.82% |      543933      1.56%     84.38% |      545058      1.57%     85.95% |      542139      1.56%     87.51% |      543103      1.56%     89.07% |      543126      1.56%     90.63% |      543071      1.56%     92.19% |      543903      1.56%     93.75% |      543720      1.56%     95.32% |      543000      1.56%     96.88% |      543520      1.56%     98.44% |      542729      1.56%    100.00% (Unspecified)
system.ruby.L1Cache_Controller.Request::total     34784420                       (Unspecified)
system.ruby.L1Cache_Controller.Forward   |      542868      1.56%      1.56% |      542873      1.56%      3.12% |      543259      1.56%      4.68% |      542936      1.56%      6.24% |      543862      1.56%      7.81% |      543020      1.56%      9.37% |      543834      1.56%     10.93% |      542594      1.56%     12.49% |      543554      1.56%     14.05% |      542701      1.56%     15.61% |      545040      1.57%     17.18% |      543533      1.56%     18.74% |      543241      1.56%     20.30% |      542509      1.56%     21.86% |      543382      1.56%     23.43% |      544873      1.57%     24.99% |      543449      1.56%     26.55% |      543602      1.56%     28.12% |      542167      1.56%     29.68% |      543986      1.56%     31.24% |      542548      1.56%     32.80% |      544624      1.57%     34.36% |      543996      1.56%     35.93% |      542557      1.56%     37.49% |      542649      1.56%     39.05% |      545550      1.57%     40.62% |      543405      1.56%     42.18% |      543850      1.56%     43.74% |      544401      1.56%     45.31% |      544624      1.57%     46.87% |      543880      1.56%     48.44% |      542465      1.56%     49.99% |      542831      1.56%     51.56% |      543938      1.56%     53.12% |      542944      1.56%     54.68% |      543114      1.56%     56.24% |      543130      1.56%     57.80% |      542605      1.56%     59.36% |      543534      1.56%     60.92% |      543045      1.56%     62.49% |      545523      1.57%     64.05% |      543443      1.56%     65.62% |      542582      1.56%     67.18% |      544070      1.56%     68.74% |      542938      1.56%     70.30% |      544333      1.56%     71.86% |      543280      1.56%     73.43% |      544321      1.56%     74.99% |      543915      1.56%     76.55% |      543962      1.56%     78.12% |      543177      1.56%     79.68% |      544166      1.56%     81.24% |      543263      1.56%     82.81% |      543809      1.56%     84.37% |      543748      1.56%     85.93% |      543207      1.56%     87.49% |      544571      1.57%     89.06% |      542588      1.56%     90.62% |      544979      1.57%     92.19% |      544583      1.57%     93.75% |      543687      1.56%     95.31% |      543679      1.56%     96.88% |      543619      1.56%     98.44% |      542980      1.56%    100.00% (Unspecified)
system.ruby.L1Cache_Controller.Forward::total     34787396                       (Unspecified)
system.ruby.L1Cache_Controller.Response  |      542726      1.56%      1.56% |      543494      1.56%      3.12% |      543572      1.56%      4.69% |      542746      1.56%      6.25% |      544921      1.57%      7.81% |      543093      1.56%      9.37% |      542464      1.56%     10.93% |      543417      1.56%     12.49% |      544311      1.56%     14.06% |      543750      1.56%     15.62% |      543206      1.56%     17.18% |      543086      1.56%     18.74% |      543706      1.56%     20.31% |      543584      1.56%     21.87% |      542650      1.56%     23.43% |      543801      1.56%     24.99% |      544889      1.57%     26.56% |      544931      1.57%     28.13% |      543496      1.56%     29.69% |      543168      1.56%     31.25% |      545089      1.57%     32.82% |      543726      1.56%     34.38% |      543562      1.56%     35.94% |      543759      1.56%     37.51% |      543179      1.56%     39.07% |      542449      1.56%     40.63% |      543424      1.56%     42.19% |      544055      1.56%     43.75% |      543132      1.56%     45.31% |      542789      1.56%     46.87% |      544053      1.56%     48.44% |      543197      1.56%     50.00% |      543424      1.56%     51.56% |      542674      1.56%     53.12% |      543584      1.56%     54.68% |      542709      1.56%     56.24% |      542062      1.56%     57.80% |      543643      1.56%     59.37% |      543888      1.56%     60.93% |      543872      1.56%     62.49% |      543391      1.56%     64.05% |      543219      1.56%     65.62% |      544159      1.56%     67.18% |      544238      1.56%     68.74% |      544553      1.57%     70.31% |      543878      1.56%     71.87% |      543845      1.56%     73.44% |      542354      1.56%     75.00% |      543934      1.56%     76.56% |      544840      1.57%     78.13% |      543844      1.56%     79.69% |      542909      1.56%     81.25% |      543969      1.56%     82.81% |      542723      1.56%     84.37% |      543783      1.56%     85.94% |      543941      1.56%     87.50% |      543750      1.56%     89.06% |      543563      1.56%     90.63% |      543995      1.56%     92.19% |      543051      1.56%     93.75% |      542464      1.56%     95.31% |      544273      1.56%     96.87% |      543729      1.56%     98.44% |      543652      1.56%    100.00% (Unspecified)
system.ruby.L1Cache_Controller.Response::total     34787338                       (Unspecified)
system.ruby.L1Cache_Controller.I.Request |      543532      1.56%      1.56% |      544006      1.56%      3.13% |      542621      1.56%      4.69% |      544543      1.57%      6.25% |      542869      1.56%      7.81% |      544482      1.57%      9.38% |      542615      1.56%     10.94% |      544160      1.56%     12.50% |      543867      1.56%     14.07% |      542712      1.56%     15.63% |      543340      1.56%     17.19% |      543421      1.56%     18.75% |      543178      1.56%     20.31% |      543609      1.56%     21.87% |      544003      1.56%     23.44% |      542132      1.56%     25.00% |      542554      1.56%     26.56% |      544747      1.57%     28.12% |      542970      1.56%     29.68% |      544319      1.56%     31.25% |      543111      1.56%     32.81% |      543032      1.56%     34.37% |      543369      1.56%     35.93% |      543915      1.56%     37.50% |      543587      1.56%     39.06% |      543307      1.56%     40.62% |      544374      1.56%     42.19% |      543119      1.56%     43.75% |      543877      1.56%     45.31% |      544016      1.56%     46.88% |      543665      1.56%     48.44% |      544229      1.56%     50.00% |      543649      1.56%     51.57% |      542618      1.56%     53.13% |      542587      1.56%     54.69% |      542998      1.56%     56.25% |      544092      1.56%     57.81% |      543230      1.56%     59.37% |      542604      1.56%     60.93% |      545210      1.57%     62.50% |      544262      1.56%     64.06% |      543342      1.56%     65.63% |      543177      1.56%     67.19% |      544121      1.56%     68.75% |      543514      1.56%     70.32% |      543932      1.56%     71.88% |      543593      1.56%     73.44% |      543681      1.56%     75.00% |      543223      1.56%     76.57% |      543239      1.56%     78.13% |      543833      1.56%     79.69% |      543611      1.56%     81.25% |      543321      1.56%     82.82% |      543933      1.56%     84.38% |      545058      1.57%     85.95% |      542139      1.56%     87.51% |      543103      1.56%     89.07% |      543126      1.56%     90.63% |      543071      1.56%     92.19% |      543903      1.56%     93.75% |      543720      1.56%     95.32% |      543000      1.56%     96.88% |      543520      1.56%     98.44% |      542729      1.56%    100.00% (Unspecified)
system.ruby.L1Cache_Controller.I.Request::total     34784420                       (Unspecified)
system.ruby.L1Cache_Controller.I.Forward |      542868      1.56%      1.56% |      542873      1.56%      3.12% |      543259      1.56%      4.68% |      542936      1.56%      6.24% |      543862      1.56%      7.81% |      543020      1.56%      9.37% |      543834      1.56%     10.93% |      542594      1.56%     12.49% |      543554      1.56%     14.05% |      542701      1.56%     15.61% |      545040      1.57%     17.18% |      543533      1.56%     18.74% |      543241      1.56%     20.30% |      542509      1.56%     21.86% |      543382      1.56%     23.43% |      544873      1.57%     24.99% |      543449      1.56%     26.55% |      543602      1.56%     28.12% |      542167      1.56%     29.68% |      543986      1.56%     31.24% |      542548      1.56%     32.80% |      544624      1.57%     34.36% |      543996      1.56%     35.93% |      542557      1.56%     37.49% |      542649      1.56%     39.05% |      545550      1.57%     40.62% |      543405      1.56%     42.18% |      543850      1.56%     43.74% |      544401      1.56%     45.31% |      544624      1.57%     46.87% |      543880      1.56%     48.44% |      542465      1.56%     49.99% |      542831      1.56%     51.56% |      543938      1.56%     53.12% |      542944      1.56%     54.68% |      543114      1.56%     56.24% |      543130      1.56%     57.80% |      542605      1.56%     59.36% |      543534      1.56%     60.92% |      543045      1.56%     62.49% |      545523      1.57%     64.05% |      543443      1.56%     65.62% |      542582      1.56%     67.18% |      544070      1.56%     68.74% |      542938      1.56%     70.30% |      544333      1.56%     71.86% |      543280      1.56%     73.43% |      544321      1.56%     74.99% |      543915      1.56%     76.55% |      543962      1.56%     78.12% |      543177      1.56%     79.68% |      544166      1.56%     81.24% |      543263      1.56%     82.81% |      543809      1.56%     84.37% |      543748      1.56%     85.93% |      543207      1.56%     87.49% |      544571      1.57%     89.06% |      542588      1.56%     90.62% |      544979      1.57%     92.19% |      544583      1.57%     93.75% |      543687      1.56%     95.31% |      543679      1.56%     96.88% |      543619      1.56%     98.44% |      542980      1.56%    100.00% (Unspecified)
system.ruby.L1Cache_Controller.I.Forward::total     34787396                       (Unspecified)
system.ruby.L1Cache_Controller.I.Response |      542726      1.56%      1.56% |      543494      1.56%      3.12% |      543572      1.56%      4.69% |      542746      1.56%      6.25% |      544921      1.57%      7.81% |      543093      1.56%      9.37% |      542464      1.56%     10.93% |      543417      1.56%     12.49% |      544311      1.56%     14.06% |      543750      1.56%     15.62% |      543206      1.56%     17.18% |      543086      1.56%     18.74% |      543706      1.56%     20.31% |      543584      1.56%     21.87% |      542650      1.56%     23.43% |      543801      1.56%     24.99% |      544889      1.57%     26.56% |      544931      1.57%     28.13% |      543496      1.56%     29.69% |      543168      1.56%     31.25% |      545089      1.57%     32.82% |      543726      1.56%     34.38% |      543562      1.56%     35.94% |      543759      1.56%     37.51% |      543179      1.56%     39.07% |      542449      1.56%     40.63% |      543424      1.56%     42.19% |      544055      1.56%     43.75% |      543132      1.56%     45.31% |      542789      1.56%     46.87% |      544053      1.56%     48.44% |      543197      1.56%     50.00% |      543424      1.56%     51.56% |      542674      1.56%     53.12% |      543584      1.56%     54.68% |      542709      1.56%     56.24% |      542062      1.56%     57.80% |      543643      1.56%     59.37% |      543888      1.56%     60.93% |      543872      1.56%     62.49% |      543391      1.56%     64.05% |      543219      1.56%     65.62% |      544159      1.56%     67.18% |      544238      1.56%     68.74% |      544553      1.57%     70.31% |      543878      1.56%     71.87% |      543845      1.56%     73.44% |      542354      1.56%     75.00% |      543934      1.56%     76.56% |      544840      1.57%     78.13% |      543844      1.56%     79.69% |      542909      1.56%     81.25% |      543969      1.56%     82.81% |      542723      1.56%     84.37% |      543783      1.56%     85.94% |      543941      1.56%     87.50% |      543750      1.56%     89.06% |      543563      1.56%     90.63% |      543995      1.56%     92.19% |      543051      1.56%     93.75% |      542464      1.56%     95.31% |      544273      1.56%     96.87% |      543729      1.56%     98.44% |      543652      1.56%    100.00% (Unspecified)
system.ruby.L1Cache_Controller.I.Response::total     34787338                       (Unspecified)
system.ruby.RequestType.LD.latency_hist_seqr::bucket_size            1                       (Unspecified)
system.ruby.RequestType.LD.latency_hist_seqr::max_bucket            9                       (Unspecified)
system.ruby.RequestType.LD.latency_hist_seqr::samples     34784420                       (Unspecified)
system.ruby.RequestType.LD.latency_hist_seqr::mean            1                       (Unspecified)
system.ruby.RequestType.LD.latency_hist_seqr::gmean            1                       (Unspecified)
system.ruby.RequestType.LD.latency_hist_seqr |           0      0.00%      0.00% |    34784420    100.00%    100.00% |           0      0.00%    100.00% |           0      0.00%    100.00% |           0      0.00%    100.00% |           0      0.00%    100.00% |           0      0.00%    100.00% |           0      0.00%    100.00% |           0      0.00%    100.00% |           0      0.00%    100.00% (Unspecified)
system.ruby.RequestType.LD.latency_hist_seqr::total     34784420                       (Unspecified)
system.ruby.RequestType.LD.hit_latency_hist_seqr::bucket_size            1                       (Unspecified)
system.ruby.RequestType.LD.hit_latency_hist_seqr::max_bucket            9                       (Unspecified)
system.ruby.RequestType.LD.hit_latency_hist_seqr::samples     34784420                       (Unspecified)
system.ruby.RequestType.LD.hit_latency_hist_seqr::mean            1                       (Unspecified)
system.ruby.RequestType.LD.hit_latency_hist_seqr::gmean            1                       (Unspecified)
system.ruby.RequestType.LD.hit_latency_hist_seqr |           0      0.00%      0.00% |    34784420    100.00%    100.00% |           0      0.00%    100.00% |           0      0.00%    100.00% |           0      0.00%    100.00% |           0      0.00%    100.00% |           0      0.00%    100.00% |           0      0.00%    100.00% |           0      0.00%    100.00% |           0      0.00%    100.00% (Unspecified)
system.ruby.RequestType.LD.hit_latency_hist_seqr::total     34784420                       (Unspecified)
system.ruby.RequestType.ST.latency_hist_seqr::bucket_size            1                       (Unspecified)
system.ruby.RequestType.ST.latency_hist_seqr::max_bucket            9                       (Unspecified)
system.ruby.RequestType.ST.latency_hist_seqr::samples     34787338                       (Unspecified)
system.ruby.RequestType.ST.latency_hist_seqr::mean            1                       (Unspecified)
system.ruby.RequestType.ST.latency_hist_seqr::gmean            1                       (Unspecified)
system.ruby.RequestType.ST.latency_hist_seqr |           0      0.00%      0.00% |    34787338    100.00%    100.00% |           0      0.00%    100.00% |           0      0.00%    100.00% |           0      0.00%    100.00% |           0      0.00%    100.00% |           0      0.00%    100.00% |           0      0.00%    100.00% |           0      0.00%    100.00% |           0      0.00%    100.00% (Unspecified)
system.ruby.RequestType.ST.latency_hist_seqr::total     34787338                       (Unspecified)
system.ruby.RequestType.ST.hit_latency_hist_seqr::bucket_size            1                       (Unspecified)
system.ruby.RequestType.ST.hit_latency_hist_seqr::max_bucket            9                       (Unspecified)
system.ruby.RequestType.ST.hit_latency_hist_seqr::samples     34787338                       (Unspecified)
system.ruby.RequestType.ST.hit_latency_hist_seqr::mean            1                       (Unspecified)
system.ruby.RequestType.ST.hit_latency_hist_seqr::gmean            1                       (Unspecified)
system.ruby.RequestType.ST.hit_latency_hist_seqr |           0      0.00%      0.00% |    34787338    100.00%    100.00% |           0      0.00%    100.00% |           0      0.00%    100.00% |           0      0.00%    100.00% |           0      0.00%    100.00% |           0      0.00%    100.00% |           0      0.00%    100.00% |           0      0.00%    100.00% |           0      0.00%    100.00% (Unspecified)
system.ruby.RequestType.ST.hit_latency_hist_seqr::total     34787338                       (Unspecified)
system.ruby.RequestType.IFETCH.latency_hist_seqr::bucket_size            1                       (Unspecified)
system.ruby.RequestType.IFETCH.latency_hist_seqr::max_bucket            9                       (Unspecified)
system.ruby.RequestType.IFETCH.latency_hist_seqr::samples     34787396                       (Unspecified)
system.ruby.RequestType.IFETCH.latency_hist_seqr::mean            1                       (Unspecified)
system.ruby.RequestType.IFETCH.latency_hist_seqr::gmean            1                       (Unspecified)
system.ruby.RequestType.IFETCH.latency_hist_seqr |           0      0.00%      0.00% |    34787396    100.00%    100.00% |           0      0.00%    100.00% |           0      0.00%    100.00% |           0      0.00%    100.00% |           0      0.00%    100.00% |           0      0.00%    100.00% |           0      0.00%    100.00% |           0      0.00%    100.00% |           0      0.00%    100.00% (Unspecified)
system.ruby.RequestType.IFETCH.latency_hist_seqr::total     34787396                       (Unspecified)
system.ruby.RequestType.IFETCH.hit_latency_hist_seqr::bucket_size            1                       (Unspecified)
system.ruby.RequestType.IFETCH.hit_latency_hist_seqr::max_bucket            9                       (Unspecified)
system.ruby.RequestType.IFETCH.hit_latency_hist_seqr::samples     34787396                       (Unspecified)
system.ruby.RequestType.IFETCH.hit_latency_hist_seqr::mean            1                       (Unspecified)
system.ruby.RequestType.IFETCH.hit_latency_hist_seqr::gmean            1                       (Unspecified)
system.ruby.RequestType.IFETCH.hit_latency_hist_seqr |           0      0.00%      0.00% |    34787396    100.00%    100.00% |           0      0.00%    100.00% |           0      0.00%    100.00% |           0      0.00%    100.00% |           0      0.00%    100.00% |           0      0.00%    100.00% |           0      0.00%    100.00% |           0      0.00%    100.00% |           0      0.00%    100.00% (Unspecified)
system.ruby.RequestType.IFETCH.hit_latency_hist_seqr::total     34787396                       (Unspecified)
system.ruby.clk_domain.clock                      250                       # Clock period in ticks (Tick)
system.ruby.dir_cntrl0.forwardToDir.m_msg_count       544692                       # Number of messages passed the buffer (Count)
system.ruby.dir_cntrl0.forwardToDir.m_buf_msgs     0.063410                       # Average number of messages in buffer ((Count/Tick))
system.ruby.dir_cntrl0.power_state.pwrStateResidencyTicks::UNDEFINED   2147483750                       # Cumulative time (in ticks) in various power states (Tick)
system.ruby.dir_cntrl0.requestToDir.m_msg_count       542815                       # Number of messages passed the buffer (Count)
system.ruby.dir_cntrl0.requestToDir.m_buf_msgs     0.063192                       # Average number of messages in buffer ((Count/Tick))
system.ruby.dir_cntrl0.responseToDir.m_msg_count       133155                       # Number of messages passed the buffer (Count)
system.ruby.dir_cntrl0.responseToDir.m_buf_msgs     0.015501                       # Average number of messages in buffer ((Count/Tick))
system.ruby.dir_cntrl1.forwardToDir.m_msg_count       543108                       # Number of messages passed the buffer (Count)
system.ruby.dir_cntrl1.forwardToDir.m_buf_msgs     0.063226                       # Average number of messages in buffer ((Count/Tick))
system.ruby.dir_cntrl1.power_state.pwrStateResidencyTicks::UNDEFINED   2147483750                       # Cumulative time (in ticks) in various power states (Tick)
system.ruby.dir_cntrl1.requestToDir.m_msg_count       543691                       # Number of messages passed the buffer (Count)
system.ruby.dir_cntrl1.requestToDir.m_buf_msgs     0.063294                       # Average number of messages in buffer ((Count/Tick))
system.ruby.dir_cntrl1.responseToDir.m_msg_count       132692                       # Number of messages passed the buffer (Count)
system.ruby.dir_cntrl1.responseToDir.m_buf_msgs     0.015447                       # Average number of messages in buffer ((Count/Tick))
system.ruby.dir_cntrl10.forwardToDir.m_msg_count       544692                       # Number of messages passed the buffer (Count)
system.ruby.dir_cntrl10.forwardToDir.m_buf_msgs     0.063410                       # Average number of messages in buffer ((Count/Tick))
system.ruby.dir_cntrl10.power_state.pwrStateResidencyTicks::UNDEFINED   2147483750                       # Cumulative time (in ticks) in various power states (Tick)
system.ruby.dir_cntrl10.requestToDir.m_msg_count       543666                       # Number of messages passed the buffer (Count)
system.ruby.dir_cntrl10.requestToDir.m_buf_msgs     0.063291                       # Average number of messages in buffer ((Count/Tick))
system.ruby.dir_cntrl10.responseToDir.m_msg_count       133214                       # Number of messages passed the buffer (Count)
system.ruby.dir_cntrl10.responseToDir.m_buf_msgs     0.015508                       # Average number of messages in buffer ((Count/Tick))
system.ruby.dir_cntrl11.forwardToDir.m_msg_count       543037                       # Number of messages passed the buffer (Count)
system.ruby.dir_cntrl11.forwardToDir.m_buf_msgs     0.063218                       # Average number of messages in buffer ((Count/Tick))
system.ruby.dir_cntrl11.power_state.pwrStateResidencyTicks::UNDEFINED   2147483750                       # Cumulative time (in ticks) in various power states (Tick)
system.ruby.dir_cntrl11.requestToDir.m_msg_count       544917                       # Number of messages passed the buffer (Count)
system.ruby.dir_cntrl11.requestToDir.m_buf_msgs     0.063437                       # Average number of messages in buffer ((Count/Tick))
system.ruby.dir_cntrl11.responseToDir.m_msg_count       133778                       # Number of messages passed the buffer (Count)
system.ruby.dir_cntrl11.responseToDir.m_buf_msgs     0.015574                       # Average number of messages in buffer ((Count/Tick))
system.ruby.dir_cntrl12.forwardToDir.m_msg_count       542074                       # Number of messages passed the buffer (Count)
system.ruby.dir_cntrl12.forwardToDir.m_buf_msgs     0.063106                       # Average number of messages in buffer ((Count/Tick))
system.ruby.dir_cntrl12.power_state.pwrStateResidencyTicks::UNDEFINED   2147483750                       # Cumulative time (in ticks) in various power states (Tick)
system.ruby.dir_cntrl12.requestToDir.m_msg_count       543280                       # Number of messages passed the buffer (Count)
system.ruby.dir_cntrl12.requestToDir.m_buf_msgs     0.063246                       # Average number of messages in buffer ((Count/Tick))
system.ruby.dir_cntrl12.responseToDir.m_msg_count       133503                       # Number of messages passed the buffer (Count)
system.ruby.dir_cntrl12.responseToDir.m_buf_msgs     0.015542                       # Average number of messages in buffer ((Count/Tick))
system.ruby.dir_cntrl13.forwardToDir.m_msg_count       545349                       # Number of messages passed the buffer (Count)
system.ruby.dir_cntrl13.forwardToDir.m_buf_msgs     0.063487                       # Average number of messages in buffer ((Count/Tick))
system.ruby.dir_cntrl13.power_state.pwrStateResidencyTicks::UNDEFINED   2147483750                       # Cumulative time (in ticks) in various power states (Tick)
system.ruby.dir_cntrl13.requestToDir.m_msg_count       543035                       # Number of messages passed the buffer (Count)
system.ruby.dir_cntrl13.requestToDir.m_buf_msgs     0.063218                       # Average number of messages in buffer ((Count/Tick))
system.ruby.dir_cntrl13.responseToDir.m_msg_count       133425                       # Number of messages passed the buffer (Count)
system.ruby.dir_cntrl13.responseToDir.m_buf_msgs     0.015533                       # Average number of messages in buffer ((Count/Tick))
system.ruby.dir_cntrl14.forwardToDir.m_msg_count       543139                       # Number of messages passed the buffer (Count)
system.ruby.dir_cntrl14.forwardToDir.m_buf_msgs     0.063230                       # Average number of messages in buffer ((Count/Tick))
system.ruby.dir_cntrl14.power_state.pwrStateResidencyTicks::UNDEFINED   2147483750                       # Cumulative time (in ticks) in various power states (Tick)
system.ruby.dir_cntrl14.requestToDir.m_msg_count       543160                       # Number of messages passed the buffer (Count)
system.ruby.dir_cntrl14.requestToDir.m_buf_msgs     0.063232                       # Average number of messages in buffer ((Count/Tick))
system.ruby.dir_cntrl14.responseToDir.m_msg_count       133488                       # Number of messages passed the buffer (Count)
system.ruby.dir_cntrl14.responseToDir.m_buf_msgs     0.015540                       # Average number of messages in buffer ((Count/Tick))
system.ruby.dir_cntrl15.forwardToDir.m_msg_count       543795                       # Number of messages passed the buffer (Count)
system.ruby.dir_cntrl15.forwardToDir.m_buf_msgs     0.063306                       # Average number of messages in buffer ((Count/Tick))
system.ruby.dir_cntrl15.power_state.pwrStateResidencyTicks::UNDEFINED   2147483750                       # Cumulative time (in ticks) in various power states (Tick)
system.ruby.dir_cntrl15.requestToDir.m_msg_count       543731                       # Number of messages passed the buffer (Count)
system.ruby.dir_cntrl15.requestToDir.m_buf_msgs     0.063299                       # Average number of messages in buffer ((Count/Tick))
system.ruby.dir_cntrl15.responseToDir.m_msg_count       133012                       # Number of messages passed the buffer (Count)
system.ruby.dir_cntrl15.responseToDir.m_buf_msgs     0.015485                       # Average number of messages in buffer ((Count/Tick))
system.ruby.dir_cntrl16.forwardToDir.m_msg_count       544560                       # Number of messages passed the buffer (Count)
system.ruby.dir_cntrl16.forwardToDir.m_buf_msgs     0.063395                       # Average number of messages in buffer ((Count/Tick))
system.ruby.dir_cntrl16.power_state.pwrStateResidencyTicks::UNDEFINED   2147483750                       # Cumulative time (in ticks) in various power states (Tick)
system.ruby.dir_cntrl16.requestToDir.m_msg_count       542831                       # Number of messages passed the buffer (Count)
system.ruby.dir_cntrl16.requestToDir.m_buf_msgs     0.063194                       # Average number of messages in buffer ((Count/Tick))
system.ruby.dir_cntrl16.responseToDir.m_msg_count       133213                       # Number of messages passed the buffer (Count)
system.ruby.dir_cntrl16.responseToDir.m_buf_msgs     0.015508                       # Average number of messages in buffer ((Count/Tick))
system.ruby.dir_cntrl17.forwardToDir.m_msg_count       543092                       # Number of messages passed the buffer (Count)
system.ruby.dir_cntrl17.forwardToDir.m_buf_msgs     0.063224                       # Average number of messages in buffer ((Count/Tick))
system.ruby.dir_cntrl17.power_state.pwrStateResidencyTicks::UNDEFINED   2147483750                       # Cumulative time (in ticks) in various power states (Tick)
system.ruby.dir_cntrl17.requestToDir.m_msg_count       544749                       # Number of messages passed the buffer (Count)
system.ruby.dir_cntrl17.requestToDir.m_buf_msgs     0.063417                       # Average number of messages in buffer ((Count/Tick))
system.ruby.dir_cntrl17.responseToDir.m_msg_count       133010                       # Number of messages passed the buffer (Count)
system.ruby.dir_cntrl17.responseToDir.m_buf_msgs     0.015484                       # Average number of messages in buffer ((Count/Tick))
system.ruby.dir_cntrl18.forwardToDir.m_msg_count       542769                       # Number of messages passed the buffer (Count)
system.ruby.dir_cntrl18.forwardToDir.m_buf_msgs     0.063187                       # Average number of messages in buffer ((Count/Tick))
system.ruby.dir_cntrl18.power_state.pwrStateResidencyTicks::UNDEFINED   2147483750                       # Cumulative time (in ticks) in various power states (Tick)
system.ruby.dir_cntrl18.requestToDir.m_msg_count       544382                       # Number of messages passed the buffer (Count)
system.ruby.dir_cntrl18.requestToDir.m_buf_msgs     0.063374                       # Average number of messages in buffer ((Count/Tick))
system.ruby.dir_cntrl18.responseToDir.m_msg_count       132839                       # Number of messages passed the buffer (Count)
system.ruby.dir_cntrl18.responseToDir.m_buf_msgs     0.015464                       # Average number of messages in buffer ((Count/Tick))
system.ruby.dir_cntrl19.forwardToDir.m_msg_count       543788                       # Number of messages passed the buffer (Count)
system.ruby.dir_cntrl19.forwardToDir.m_buf_msgs     0.063305                       # Average number of messages in buffer ((Count/Tick))
system.ruby.dir_cntrl19.power_state.pwrStateResidencyTicks::UNDEFINED   2147483750                       # Cumulative time (in ticks) in various power states (Tick)
system.ruby.dir_cntrl19.requestToDir.m_msg_count       543250                       # Number of messages passed the buffer (Count)
system.ruby.dir_cntrl19.requestToDir.m_buf_msgs     0.063243                       # Average number of messages in buffer ((Count/Tick))
system.ruby.dir_cntrl19.responseToDir.m_msg_count       132709                       # Number of messages passed the buffer (Count)
system.ruby.dir_cntrl19.responseToDir.m_buf_msgs     0.015449                       # Average number of messages in buffer ((Count/Tick))
system.ruby.dir_cntrl2.forwardToDir.m_msg_count       544257                       # Number of messages passed the buffer (Count)
system.ruby.dir_cntrl2.forwardToDir.m_buf_msgs     0.063360                       # Average number of messages in buffer ((Count/Tick))
system.ruby.dir_cntrl2.power_state.pwrStateResidencyTicks::UNDEFINED   2147483750                       # Cumulative time (in ticks) in various power states (Tick)
system.ruby.dir_cntrl2.requestToDir.m_msg_count       543468                       # Number of messages passed the buffer (Count)
system.ruby.dir_cntrl2.requestToDir.m_buf_msgs     0.063268                       # Average number of messages in buffer ((Count/Tick))
system.ruby.dir_cntrl2.responseToDir.m_msg_count       133213                       # Number of messages passed the buffer (Count)
system.ruby.dir_cntrl2.responseToDir.m_buf_msgs     0.015508                       # Average number of messages in buffer ((Count/Tick))
system.ruby.dir_cntrl20.forwardToDir.m_msg_count       544151                       # Number of messages passed the buffer (Count)
system.ruby.dir_cntrl20.forwardToDir.m_buf_msgs     0.063348                       # Average number of messages in buffer ((Count/Tick))
system.ruby.dir_cntrl20.power_state.pwrStateResidencyTicks::UNDEFINED   2147483750                       # Cumulative time (in ticks) in various power states (Tick)
system.ruby.dir_cntrl20.requestToDir.m_msg_count       543703                       # Number of messages passed the buffer (Count)
system.ruby.dir_cntrl20.requestToDir.m_buf_msgs     0.063295                       # Average number of messages in buffer ((Count/Tick))
system.ruby.dir_cntrl20.responseToDir.m_msg_count       133488                       # Number of messages passed the buffer (Count)
system.ruby.dir_cntrl20.responseToDir.m_buf_msgs     0.015540                       # Average number of messages in buffer ((Count/Tick))
system.ruby.dir_cntrl21.forwardToDir.m_msg_count       543939                       # Number of messages passed the buffer (Count)
system.ruby.dir_cntrl21.forwardToDir.m_buf_msgs     0.063323                       # Average number of messages in buffer ((Count/Tick))
system.ruby.dir_cntrl21.power_state.pwrStateResidencyTicks::UNDEFINED   2147483750                       # Cumulative time (in ticks) in various power states (Tick)
system.ruby.dir_cntrl21.requestToDir.m_msg_count       542951                       # Number of messages passed the buffer (Count)
system.ruby.dir_cntrl21.requestToDir.m_buf_msgs     0.063208                       # Average number of messages in buffer ((Count/Tick))
system.ruby.dir_cntrl21.responseToDir.m_msg_count       133148                       # Number of messages passed the buffer (Count)
system.ruby.dir_cntrl21.responseToDir.m_buf_msgs     0.015500                       # Average number of messages in buffer ((Count/Tick))
system.ruby.dir_cntrl22.forwardToDir.m_msg_count       542075                       # Number of messages passed the buffer (Count)
system.ruby.dir_cntrl22.forwardToDir.m_buf_msgs     0.063106                       # Average number of messages in buffer ((Count/Tick))
system.ruby.dir_cntrl22.power_state.pwrStateResidencyTicks::UNDEFINED   2147483750                       # Cumulative time (in ticks) in various power states (Tick)
system.ruby.dir_cntrl22.requestToDir.m_msg_count       543822                       # Number of messages passed the buffer (Count)
system.ruby.dir_cntrl22.requestToDir.m_buf_msgs     0.063309                       # Average number of messages in buffer ((Count/Tick))
system.ruby.dir_cntrl22.responseToDir.m_msg_count       133359                       # Number of messages passed the buffer (Count)
system.ruby.dir_cntrl22.responseToDir.m_buf_msgs     0.015525                       # Average number of messages in buffer ((Count/Tick))
system.ruby.dir_cntrl23.forwardToDir.m_msg_count       543656                       # Number of messages passed the buffer (Count)
system.ruby.dir_cntrl23.forwardToDir.m_buf_msgs     0.063290                       # Average number of messages in buffer ((Count/Tick))
system.ruby.dir_cntrl23.power_state.pwrStateResidencyTicks::UNDEFINED   2147483750                       # Cumulative time (in ticks) in various power states (Tick)
system.ruby.dir_cntrl23.requestToDir.m_msg_count       543090                       # Number of messages passed the buffer (Count)
system.ruby.dir_cntrl23.requestToDir.m_buf_msgs     0.063224                       # Average number of messages in buffer ((Count/Tick))
system.ruby.dir_cntrl23.responseToDir.m_msg_count       132731                       # Number of messages passed the buffer (Count)
system.ruby.dir_cntrl23.responseToDir.m_buf_msgs     0.015452                       # Average number of messages in buffer ((Count/Tick))
system.ruby.dir_cntrl24.forwardToDir.m_msg_count       543666                       # Number of messages passed the buffer (Count)
system.ruby.dir_cntrl24.forwardToDir.m_buf_msgs     0.063291                       # Average number of messages in buffer ((Count/Tick))
system.ruby.dir_cntrl24.power_state.pwrStateResidencyTicks::UNDEFINED   2147483750                       # Cumulative time (in ticks) in various power states (Tick)
system.ruby.dir_cntrl24.requestToDir.m_msg_count       542346                       # Number of messages passed the buffer (Count)
system.ruby.dir_cntrl24.requestToDir.m_buf_msgs     0.063137                       # Average number of messages in buffer ((Count/Tick))
system.ruby.dir_cntrl24.responseToDir.m_msg_count       133530                       # Number of messages passed the buffer (Count)
system.ruby.dir_cntrl24.responseToDir.m_buf_msgs     0.015545                       # Average number of messages in buffer ((Count/Tick))
system.ruby.dir_cntrl25.forwardToDir.m_msg_count       543503                       # Number of messages passed the buffer (Count)
system.ruby.dir_cntrl25.forwardToDir.m_buf_msgs     0.063272                       # Average number of messages in buffer ((Count/Tick))
system.ruby.dir_cntrl25.power_state.pwrStateResidencyTicks::UNDEFINED   2147483750                       # Cumulative time (in ticks) in various power states (Tick)
system.ruby.dir_cntrl25.requestToDir.m_msg_count       542172                       # Number of messages passed the buffer (Count)
system.ruby.dir_cntrl25.requestToDir.m_buf_msgs     0.063117                       # Average number of messages in buffer ((Count/Tick))
system.ruby.dir_cntrl25.responseToDir.m_msg_count       133707                       # Number of messages passed the buffer (Count)
system.ruby.dir_cntrl25.responseToDir.m_buf_msgs     0.015566                       # Average number of messages in buffer ((Count/Tick))
system.ruby.dir_cntrl26.forwardToDir.m_msg_count       542811                       # Number of messages passed the buffer (Count)
system.ruby.dir_cntrl26.forwardToDir.m_buf_msgs     0.063192                       # Average number of messages in buffer ((Count/Tick))
system.ruby.dir_cntrl26.power_state.pwrStateResidencyTicks::UNDEFINED   2147483750                       # Cumulative time (in ticks) in various power states (Tick)
system.ruby.dir_cntrl26.requestToDir.m_msg_count       544125                       # Number of messages passed the buffer (Count)
system.ruby.dir_cntrl26.requestToDir.m_buf_msgs     0.063344                       # Average number of messages in buffer ((Count/Tick))
system.ruby.dir_cntrl26.responseToDir.m_msg_count       133032                       # Number of messages passed the buffer (Count)
system.ruby.dir_cntrl26.responseToDir.m_buf_msgs     0.015487                       # Average number of messages in buffer ((Count/Tick))
system.ruby.dir_cntrl27.forwardToDir.m_msg_count       542672                       # Number of messages passed the buffer (Count)
system.ruby.dir_cntrl27.forwardToDir.m_buf_msgs     0.063175                       # Average number of messages in buffer ((Count/Tick))
system.ruby.dir_cntrl27.power_state.pwrStateResidencyTicks::UNDEFINED   2147483750                       # Cumulative time (in ticks) in various power states (Tick)
[...]
system.ruby.network.sankey.vcvn35.vcvn5             0                       (Unspecified)
system.ruby.network.sankey.vcvn35.vcvn6             0                       (Unspecified)
system.ruby.network.sankey.vcvn35.vcvn7             0                       (Unspecified)
system.ruby.network.sankey.vcvn35.vcvn8             0                       (Unspecified)
system.ruby.network.sankey.vcvn35.vcvn9             0                       (Unspecified)
system.ruby.network.sankey.vcvn4.vcvn0        2240104                       (Unspecified)
system.ruby.network.sankey.vcvn4.vcvn1         696393                       (Unspecified)
system.ruby.network.sankey.vcvn4.vcvn10          1852                       (Unspecified)
system.ruby.network.sankey.vcvn4.vcvn11          3257                       (Unspecified)
system.ruby.network.sankey.vcvn4.vcvn12             0                       (Unspecified)
system.ruby.network.sankey.vcvn4.vcvn13             0                       (Unspecified)
system.ruby.network.sankey.vcvn4.vcvn14             0                       (Unspecified)
system.ruby.network.sankey.vcvn4.vcvn15             0                       (Unspecified)
system.ruby.network.sankey.vcvn4.vcvn16             0                       (Unspecified)
system.ruby.network.sankey.vcvn4.vcvn17             0                       (Unspecified)
system.ruby.network.sankey.vcvn4.vcvn18             0                       (Unspecified)
system.ruby.network.sankey.vcvn4.vcvn19             0                       (Unspecified)
system.ruby.network.sankey.vcvn4.vcvn2         134990                       (Unspecified)
system.ruby.network.sankey.vcvn4.vcvn20             0                       (Unspecified)
system.ruby.network.sankey.vcvn4.vcvn21             0                       (Unspecified)
system.ruby.network.sankey.vcvn4.vcvn22             0                       (Unspecified)
system.ruby.network.sankey.vcvn4.vcvn23             0                       (Unspecified)
system.ruby.network.sankey.vcvn4.vcvn24             0                       (Unspecified)
system.ruby.network.sankey.vcvn4.vcvn25             0                       (Unspecified)
system.ruby.network.sankey.vcvn4.vcvn26             0                       (Unspecified)
system.ruby.network.sankey.vcvn4.vcvn27             0                       (Unspecified)
system.ruby.network.sankey.vcvn4.vcvn28             0                       (Unspecified)
system.ruby.network.sankey.vcvn4.vcvn29             0                       (Unspecified)
system.ruby.network.sankey.vcvn4.vcvn3          17627                       (Unspecified)
system.ruby.network.sankey.vcvn4.vcvn30             0                       (Unspecified)
system.ruby.network.sankey.vcvn4.vcvn31             0                       (Unspecified)
system.ruby.network.sankey.vcvn4.vcvn32             0                       (Unspecified)
system.ruby.network.sankey.vcvn4.vcvn33             0                       (Unspecified)
system.ruby.network.sankey.vcvn4.vcvn34             0                       (Unspecified)
system.ruby.network.sankey.vcvn4.vcvn35             0                       (Unspecified)
system.ruby.network.sankey.vcvn4.vcvn4           1650                       (Unspecified)
system.ruby.network.sankey.vcvn4.vcvn5             99                       (Unspecified)
system.ruby.network.sankey.vcvn4.vcvn6              3                       (Unspecified)
system.ruby.network.sankey.vcvn4.vcvn7              0                       (Unspecified)
system.ruby.network.sankey.vcvn4.vcvn8              0                       (Unspecified)
system.ruby.network.sankey.vcvn4.vcvn9              0                       (Unspecified)
system.ruby.network.sankey.vcvn5.vcvn0        2240356                       (Unspecified)
system.ruby.network.sankey.vcvn5.vcvn1         695967                       (Unspecified)
system.ruby.network.sankey.vcvn5.vcvn10          1955                       (Unspecified)
system.ruby.network.sankey.vcvn5.vcvn11          3298                       (Unspecified)
system.ruby.network.sankey.vcvn5.vcvn12             0                       (Unspecified)
system.ruby.network.sankey.vcvn5.vcvn13             0                       (Unspecified)
system.ruby.network.sankey.vcvn5.vcvn14             0                       (Unspecified)
system.ruby.network.sankey.vcvn5.vcvn15             0                       (Unspecified)
system.ruby.network.sankey.vcvn5.vcvn16             0                       (Unspecified)
system.ruby.network.sankey.vcvn5.vcvn17             0                       (Unspecified)
system.ruby.network.sankey.vcvn5.vcvn18             0                       (Unspecified)
system.ruby.network.sankey.vcvn5.vcvn19             0                       (Unspecified)
system.ruby.network.sankey.vcvn5.vcvn2         135088                       (Unspecified)
system.ruby.network.sankey.vcvn5.vcvn20             0                       (Unspecified)
system.ruby.network.sankey.vcvn5.vcvn21             0                       (Unspecified)
system.ruby.network.sankey.vcvn5.vcvn22             0                       (Unspecified)
system.ruby.network.sankey.vcvn5.vcvn23             0                       (Unspecified)
system.ruby.network.sankey.vcvn5.vcvn24             0                       (Unspecified)
system.ruby.network.sankey.vcvn5.vcvn25             0                       (Unspecified)
system.ruby.network.sankey.vcvn5.vcvn26             0                       (Unspecified)
system.ruby.network.sankey.vcvn5.vcvn27             0                       (Unspecified)
system.ruby.network.sankey.vcvn5.vcvn28             0                       (Unspecified)
system.ruby.network.sankey.vcvn5.vcvn29             0                       (Unspecified)
system.ruby.network.sankey.vcvn5.vcvn3          17498                       (Unspecified)
system.ruby.network.sankey.vcvn5.vcvn30             0                       (Unspecified)
system.ruby.network.sankey.vcvn5.vcvn31             0                       (Unspecified)
system.ruby.network.sankey.vcvn5.vcvn32             0                       (Unspecified)
system.ruby.network.sankey.vcvn5.vcvn33             0                       (Unspecified)
system.ruby.network.sankey.vcvn5.vcvn34             0                       (Unspecified)
system.ruby.network.sankey.vcvn5.vcvn35             0                       (Unspecified)
system.ruby.network.sankey.vcvn5.vcvn4           1699                       (Unspecified)
system.ruby.network.sankey.vcvn5.vcvn5            107                       (Unspecified)
system.ruby.network.sankey.vcvn5.vcvn6              1                       (Unspecified)
system.ruby.network.sankey.vcvn5.vcvn7              0                       (Unspecified)
system.ruby.network.sankey.vcvn5.vcvn8              0                       (Unspecified)
system.ruby.network.sankey.vcvn5.vcvn9              0                       (Unspecified)
system.ruby.network.sankey.vcvn6.vcvn0        2239523                       (Unspecified)
system.ruby.network.sankey.vcvn6.vcvn1         696272                       (Unspecified)
system.ruby.network.sankey.vcvn6.vcvn10          1967                       (Unspecified)
system.ruby.network.sankey.vcvn6.vcvn11          3340                       (Unspecified)
system.ruby.network.sankey.vcvn6.vcvn12             0                       (Unspecified)
system.ruby.network.sankey.vcvn6.vcvn13             0                       (Unspecified)
system.ruby.network.sankey.vcvn6.vcvn14             0                       (Unspecified)
system.ruby.network.sankey.vcvn6.vcvn15             0                       (Unspecified)
system.ruby.network.sankey.vcvn6.vcvn16             0                       (Unspecified)
system.ruby.network.sankey.vcvn6.vcvn17             0                       (Unspecified)
system.ruby.network.sankey.vcvn6.vcvn18             0                       (Unspecified)
system.ruby.network.sankey.vcvn6.vcvn19             0                       (Unspecified)
system.ruby.network.sankey.vcvn6.vcvn2         135508                       (Unspecified)
system.ruby.network.sankey.vcvn6.vcvn20             0                       (Unspecified)
system.ruby.network.sankey.vcvn6.vcvn21             0                       (Unspecified)
system.ruby.network.sankey.vcvn6.vcvn22             0                       (Unspecified)
system.ruby.network.sankey.vcvn6.vcvn23             0                       (Unspecified)
system.ruby.network.sankey.vcvn6.vcvn24             0                       (Unspecified)
system.ruby.network.sankey.vcvn6.vcvn25             0                       (Unspecified)
system.ruby.network.sankey.vcvn6.vcvn26             0                       (Unspecified)
system.ruby.network.sankey.vcvn6.vcvn27             0                       (Unspecified)
system.ruby.network.sankey.vcvn6.vcvn28             0                       (Unspecified)
system.ruby.network.sankey.vcvn6.vcvn29             0                       (Unspecified)
system.ruby.network.sankey.vcvn6.vcvn3          17594                       (Unspecified)
system.ruby.network.sankey.vcvn6.vcvn30             0                       (Unspecified)
system.ruby.network.sankey.vcvn6.vcvn31             0                       (Unspecified)
system.ruby.network.sankey.vcvn6.vcvn32             0                       (Unspecified)
system.ruby.network.sankey.vcvn6.vcvn33             0                       (Unspecified)
system.ruby.network.sankey.vcvn6.vcvn34             0                       (Unspecified)
system.ruby.network.sankey.vcvn6.vcvn35             0                       (Unspecified)
system.ruby.network.sankey.vcvn6.vcvn4           1651                       (Unspecified)
system.ruby.network.sankey.vcvn6.vcvn5            104                       (Unspecified)
system.ruby.network.sankey.vcvn6.vcvn6              4                       (Unspecified)
system.ruby.network.sankey.vcvn6.vcvn7              0                       (Unspecified)
system.ruby.network.sankey.vcvn6.vcvn8              0                       (Unspecified)
system.ruby.network.sankey.vcvn6.vcvn9              0                       (Unspecified)
system.ruby.network.sankey.vcvn7.vcvn0        2237536                       (Unspecified)
system.ruby.network.sankey.vcvn7.vcvn1         698275                       (Unspecified)
system.ruby.network.sankey.vcvn7.vcvn10          1884                       (Unspecified)
system.ruby.network.sankey.vcvn7.vcvn11          3445                       (Unspecified)
system.ruby.network.sankey.vcvn7.vcvn12             0                       (Unspecified)
system.ruby.network.sankey.vcvn7.vcvn13             0                       (Unspecified)
system.ruby.network.sankey.vcvn7.vcvn14             0                       (Unspecified)
system.ruby.network.sankey.vcvn7.vcvn15             0                       (Unspecified)
system.ruby.network.sankey.vcvn7.vcvn16             0                       (Unspecified)
system.ruby.network.sankey.vcvn7.vcvn17             0                       (Unspecified)
system.ruby.network.sankey.vcvn7.vcvn18             0                       (Unspecified)
system.ruby.network.sankey.vcvn7.vcvn19             0                       (Unspecified)
system.ruby.network.sankey.vcvn7.vcvn2         135666                       (Unspecified)
system.ruby.network.sankey.vcvn7.vcvn20             0                       (Unspecified)
system.ruby.network.sankey.vcvn7.vcvn21             0                       (Unspecified)
system.ruby.network.sankey.vcvn7.vcvn22             0                       (Unspecified)
system.ruby.network.sankey.vcvn7.vcvn23             0                       (Unspecified)
system.ruby.network.sankey.vcvn7.vcvn24             0                       (Unspecified)
system.ruby.network.sankey.vcvn7.vcvn25             0                       (Unspecified)
system.ruby.network.sankey.vcvn7.vcvn26             0                       (Unspecified)
system.ruby.network.sankey.vcvn7.vcvn27             0                       (Unspecified)
system.ruby.network.sankey.vcvn7.vcvn28             0                       (Unspecified)
system.ruby.network.sankey.vcvn7.vcvn29             0                       (Unspecified)
system.ruby.network.sankey.vcvn7.vcvn3          17401                       (Unspecified)
system.ruby.network.sankey.vcvn7.vcvn30             0                       (Unspecified)
system.ruby.network.sankey.vcvn7.vcvn31             0                       (Unspecified)
system.ruby.network.sankey.vcvn7.vcvn32             0                       (Unspecified)
system.ruby.network.sankey.vcvn7.vcvn33             0                       (Unspecified)
system.ruby.network.sankey.vcvn7.vcvn34             0                       (Unspecified)
system.ruby.network.sankey.vcvn7.vcvn35             0                       (Unspecified)
system.ruby.network.sankey.vcvn7.vcvn4           1648                       (Unspecified)
system.ruby.network.sankey.vcvn7.vcvn5            105                       (Unspecified)
system.ruby.network.sankey.vcvn7.vcvn6              2                       (Unspecified)
system.ruby.network.sankey.vcvn7.vcvn7              0                       (Unspecified)
system.ruby.network.sankey.vcvn7.vcvn8              0                       (Unspecified)
system.ruby.network.sankey.vcvn7.vcvn9              0                       (Unspecified)
system.ruby.network.sankey.vcvn8.vcvn0        2240083                       (Unspecified)
system.ruby.network.sankey.vcvn8.vcvn1         696149                       (Unspecified)
system.ruby.network.sankey.vcvn8.vcvn10          1905                       (Unspecified)
system.ruby.network.sankey.vcvn8.vcvn11          3406                       (Unspecified)
system.ruby.network.sankey.vcvn8.vcvn12             0                       (Unspecified)
system.ruby.network.sankey.vcvn8.vcvn13             0                       (Unspecified)
system.ruby.network.sankey.vcvn8.vcvn14             0                       (Unspecified)
system.ruby.network.sankey.vcvn8.vcvn15             0                       (Unspecified)
system.ruby.network.sankey.vcvn8.vcvn16             0                       (Unspecified)
system.ruby.network.sankey.vcvn8.vcvn17             0                       (Unspecified)
system.ruby.network.sankey.vcvn8.vcvn18             0                       (Unspecified)
system.ruby.network.sankey.vcvn8.vcvn19             0                       (Unspecified)
system.ruby.network.sankey.vcvn8.vcvn2         135221                       (Unspecified)
system.ruby.network.sankey.vcvn8.vcvn20             0                       (Unspecified)
system.ruby.network.sankey.vcvn8.vcvn21             0                       (Unspecified)
system.ruby.network.sankey.vcvn8.vcvn22             0                       (Unspecified)
system.ruby.network.sankey.vcvn8.vcvn23             0                       (Unspecified)
system.ruby.network.sankey.vcvn8.vcvn24             0                       (Unspecified)
system.ruby.network.sankey.vcvn8.vcvn25             0                       (Unspecified)
system.ruby.network.sankey.vcvn8.vcvn26             0                       (Unspecified)
system.ruby.network.sankey.vcvn8.vcvn27             0                       (Unspecified)
system.ruby.network.sankey.vcvn8.vcvn28             0                       (Unspecified)
system.ruby.network.sankey.vcvn8.vcvn29             0                       (Unspecified)
system.ruby.network.sankey.vcvn8.vcvn3          17477                       (Unspecified)
system.ruby.network.sankey.vcvn8.vcvn30             0                       (Unspecified)
system.ruby.network.sankey.vcvn8.vcvn31             0                       (Unspecified)
system.ruby.network.sankey.vcvn8.vcvn32             0                       (Unspecified)
system.ruby.network.sankey.vcvn8.vcvn33             0                       (Unspecified)
system.ruby.network.sankey.vcvn8.vcvn34             0                       (Unspecified)
system.ruby.network.sankey.vcvn8.vcvn35             0                       (Unspecified)
system.ruby.network.sankey.vcvn8.vcvn4           1617                       (Unspecified)
system.ruby.network.sankey.vcvn8.vcvn5             97                       (Unspecified)
system.ruby.network.sankey.vcvn8.vcvn6              3                       (Unspecified)
system.ruby.network.sankey.vcvn8.vcvn7              0                       (Unspecified)
system.ruby.network.sankey.vcvn8.vcvn8              0                       (Unspecified)
system.ruby.network.sankey.vcvn8.vcvn9              0                       (Unspecified)
system.ruby.network.sankey.vcvn9.vcvn0        2241002                       (Unspecified)
system.ruby.network.sankey.vcvn9.vcvn1         695085                       (Unspecified)
system.ruby.network.sankey.vcvn9.vcvn10          1919                       (Unspecified)
system.ruby.network.sankey.vcvn9.vcvn11          3396                       (Unspecified)
system.ruby.network.sankey.vcvn9.vcvn12             0                       (Unspecified)
system.ruby.network.sankey.vcvn9.vcvn13             0                       (Unspecified)
system.ruby.network.sankey.vcvn9.vcvn14             0                       (Unspecified)
system.ruby.network.sankey.vcvn9.vcvn15             0                       (Unspecified)
system.ruby.network.sankey.vcvn9.vcvn16             0                       (Unspecified)
system.ruby.network.sankey.vcvn9.vcvn17             0                       (Unspecified)
system.ruby.network.sankey.vcvn9.vcvn18             0                       (Unspecified)
system.ruby.network.sankey.vcvn9.vcvn19             0                       (Unspecified)
system.ruby.network.sankey.vcvn9.vcvn2         135324                       (Unspecified)
system.ruby.network.sankey.vcvn9.vcvn20             0                       (Unspecified)
system.ruby.network.sankey.vcvn9.vcvn21             0                       (Unspecified)
system.ruby.network.sankey.vcvn9.vcvn22             0                       (Unspecified)
system.ruby.network.sankey.vcvn9.vcvn23             0                       (Unspecified)
system.ruby.network.sankey.vcvn9.vcvn24             0                       (Unspecified)
system.ruby.network.sankey.vcvn9.vcvn25             0                       (Unspecified)
system.ruby.network.sankey.vcvn9.vcvn26             0                       (Unspecified)
system.ruby.network.sankey.vcvn9.vcvn27             0                       (Unspecified)
system.ruby.network.sankey.vcvn9.vcvn28             0                       (Unspecified)
system.ruby.network.sankey.vcvn9.vcvn29             0                       (Unspecified)
system.ruby.network.sankey.vcvn9.vcvn3          17515                       (Unspecified)
system.ruby.network.sankey.vcvn9.vcvn30             0                       (Unspecified)
system.ruby.network.sankey.vcvn9.vcvn31             0                       (Unspecified)
system.ruby.network.sankey.vcvn9.vcvn32             0                       (Unspecified)
system.ruby.network.sankey.vcvn9.vcvn33             0                       (Unspecified)
system.ruby.network.sankey.vcvn9.vcvn34             0                       (Unspecified)
system.ruby.network.sankey.vcvn9.vcvn35             0                       (Unspecified)
system.ruby.network.sankey.vcvn9.vcvn4           1604                       (Unspecified)
system.ruby.network.sankey.vcvn9.vcvn5             99                       (Unspecified)
system.ruby.network.sankey.vcvn9.vcvn6              5                       (Unspecified)
system.ruby.network.sankey.vcvn9.vcvn7              0                       (Unspecified)
system.ruby.network.sankey.vcvn9.vcvn8              0                       (Unspecified)
system.ruby.network.sankey.vcvn9.vcvn9              0                       (Unspecified)

---------- End Simulation Statistics   ----------
