gem5 Simulator System.  https://www.gem5.org
gem5 is copyrighted software; use the --copyright option for details.

gem5 version 22.0.0.2
gem5 compiled Jun 17 2023 14:31:12
gem5 started Nov 18 2023 15:49:40
gem5 executing on mnemosyne24.ecn.purdue.edu, pid 14286
command line: ./build/Garnet_standalone/gem5.fast -d ./synth_outputs/simple/2b/mixed/nndbt_none_2_6_40cpus_4xdirs_4.0GHz/mem/ns_s_latop/0_145/ configs/auto_top/auto_top_synth.py --topology EscapeVirtualNetworks --noi_routers 20 --sim-cycles 2147483647 --injectionrate 0.145 --noc_clk 4.0GHz --sys-clock 4.0GHz --ruby-clock 4.0GHz --noi_clk 3.6GHz --router_map_file configs/topologies/paper_solutions/ns_s_latop.map --flat_vn_map_file configs/topologies/vn_maps_ndbt/ns_s_latop_nndbt_none_2vns.vn --flat_nr_map_file configs/topologies/nr_list_ndbt/ns_s_latop_nndbt.nrl --ruby --mem_or_coh mem --mem-size 320000000 --num-dirs 64 --num-cpus 40 --network garnet --mem-type SimpleMemory --routing-algorithm 2 --use_escape_vns --synth_traffic --vcs-per-vnet 6 --evn_deadlock_partition 4 --evn_n_deadlock_free 1 --evn_min_n_deadlock_free 2

info: Standard input is not a terminal, disabling listeners.
ingesting configs/topologies/vn_maps_ndbt/ns_s_latop_nndbt_none_2vns.vn
cpus(40)=[<m5.objects.GarnetSyntheticTraffic.GarnetSyntheticTraffic object at 0x7f4c02f39048>, <m5.objects.GarnetSyntheticTraffic.GarnetSyntheticTraffic object at 0x7f4c02f39d68>, <m5.objects.GarnetSyntheticTraffic.GarnetSyntheticTraffic object at 0x7f4c02ab6080>, <m5.objects.GarnetSyntheticTraffic.GarnetSyntheticTraffic object at 0x7f4c02ab6358>, <m5.objects.GarnetSyntheticTraffic.GarnetSyntheticTraffic object at 0x7f4c02ab6630>, <m5.objects.GarnetSyntheticTraffic.GarnetSyntheticTraffic object at 0x7f4c02ab6908>, <m5.objects.GarnetSyntheticTraffic.GarnetSyntheticTraffic object at 0x7f4c02ab6be0>, <m5.objects.GarnetSyntheticTraffic.GarnetSyntheticTraffic object at 0x7f4c02ab6eb8>, <m5.objects.GarnetSyntheticTraffic.GarnetSyntheticTraffic object at 0x7f4c02abf1d0>, <m5.objects.GarnetSyntheticTraffic.GarnetSyntheticTraffic object at 0x7f4c02abf4a8>, <m5.objects.GarnetSyntheticTraffic.GarnetSyntheticTraffic object at 0x7f4c02abf780>, <m5.objects.GarnetSyntheticTraffic.GarnetSyntheticTraffic object at 0x7f4c02abfa58>, <m5.objects.GarnetSyntheticTraffic.GarnetSyntheticTraffic object at 0x7f4c02f39860>, <m5.objects.GarnetSyntheticTraffic.GarnetSyntheticTraffic object at 0x7f4c02f29dd8>, <m5.objects.GarnetSyntheticTraffic.GarnetSyntheticTraffic object at 0x7f4c02f33710>, <m5.objects.GarnetSyntheticTraffic.GarnetSyntheticTraffic object at 0x7f4c02f33d68>, <m5.objects.GarnetSyntheticTraffic.GarnetSyntheticTraffic object at 0x7f4c02abfcc0>, <m5.objects.GarnetSyntheticTraffic.GarnetSyntheticTraffic object at 0x7f4c02abff98>, <m5.objects.GarnetSyntheticTraffic.GarnetSyntheticTraffic object at 0x7f4c02acb2b0>, <m5.objects.GarnetSyntheticTraffic.GarnetSyntheticTraffic object at 0x7f4c02acb588>, <m5.objects.GarnetSyntheticTraffic.GarnetSyntheticTraffic object at 0x7f4c02acb860>, <m5.objects.GarnetSyntheticTraffic.GarnetSyntheticTraffic object at 0x7f4c02acbb38>, <m5.objects.GarnetSyntheticTraffic.GarnetSyntheticTraffic object at 0x7f4c02acbe10>, <m5.objects.GarnetSyntheticTraffic.GarnetSyntheticTraffic object at 0x7f4c02ad2128>, <m5.objects.GarnetSyntheticTraffic.GarnetSyntheticTraffic object at 0x7f4c02ad2400>, <m5.objects.GarnetSyntheticTraffic.GarnetSyntheticTraffic object at 0x7f4c02ad26d8>, <m5.objects.GarnetSyntheticTraffic.GarnetSyntheticTraffic object at 0x7f4c02ad29b0>, <m5.objects.GarnetSyntheticTraffic.GarnetSyntheticTraffic object at 0x7f4c02ad2c88>, <m5.objects.GarnetSyntheticTraffic.GarnetSyntheticTraffic object at 0x7f4c02ad2f60>, <m5.objects.GarnetSyntheticTraffic.GarnetSyntheticTraffic object at 0x7f4c02adb278>, <m5.objects.GarnetSyntheticTraffic.GarnetSyntheticTraffic object at 0x7f4c02adb550>, <m5.objects.GarnetSyntheticTraffic.GarnetSyntheticTraffic object at 0x7f4c02adb828>, <m5.objects.GarnetSyntheticTraffic.GarnetSyntheticTraffic object at 0x7f4c02adbb00>, <m5.objects.GarnetSyntheticTraffic.GarnetSyntheticTraffic object at 0x7f4c02adbdd8>, <m5.objects.GarnetSyntheticTraffic.GarnetSyntheticTraffic object at 0x7f4c02ae30f0>, <m5.objects.GarnetSyntheticTraffic.GarnetSyntheticTraffic object at 0x7f4c02ae33c8>, <m5.objects.GarnetSyntheticTraffic.GarnetSyntheticTraffic object at 0x7f4c02ae36a0>, <m5.objects.GarnetSyntheticTraffic.GarnetSyntheticTraffic object at 0x7f4c02ae3978>, <m5.objects.GarnetSyntheticTraffic.GarnetSyntheticTraffic object at 0x7f4c02ae3c50>, <m5.objects.GarnetSyntheticTraffic.GarnetSyntheticTraffic object at 0x7f4c02ae3f28>])
ingesting configs/topologies/nr_list_ndbt/ns_s_latop_nndbt.nrl
ingesting configs/topologies/vn_maps_ndbt/ns_s_latop_nndbt_none_2vns.vn
ext_cdc_required = True
