gem5 Simulator System.  https://www.gem5.org
gem5 is copyrighted software; use the --copyright option for details.

gem5 version 22.0.0.2
gem5 compiled Jun 17 2023 14:31:12
gem5 started Nov 18 2023 15:49:58
gem5 executing on mnemosyne14.ecn.purdue.edu, pid 23699
command line: ./build/Garnet_standalone/gem5.fast -d ./synth_outputs/simple/2b/mixed/mclb_hops_4_6_40cpus_4xdirs_4.0GHz/coh/kite_large/0_175/ configs/auto_top/auto_top_synth.py --topology EscapeVirtualNetworks --noi_routers 20 --sim-cycles 2147483647 --injectionrate 0.175 --noc_clk 4.0GHz --sys-clock 4.0GHz --ruby-clock 4.0GHz --noi_clk 2.7GHz --router_map_file configs/topologies/paper_solutions/kite_large.map --flat_vn_map_file configs/topologies/vn_maps_mclb/kite_large_mclb_hops_4vns.vn --flat_nr_map_file configs/topologies/nr_list_mclb/kite_large_mclb.nrl --ruby --mem_or_coh coh --mem-size 320000000 --num-dirs 160 --num-cpus 40 --network garnet --mem-type SimpleMemory --routing-algorithm 2 --use_escape_vns --synth_traffic --vcs-per-vnet 6 --evn_deadlock_partition 2 --evn_n_deadlock_free 1 --evn_min_n_deadlock_free 4

info: Standard input is not a terminal, disabling listeners.
ingesting configs/topologies/vn_maps_mclb/kite_large_mclb_hops_4vns.vn
cpus(40)=[<m5.objects.GarnetSyntheticTraffic.GarnetSyntheticTraffic object at 0x7fb370c00080>, <m5.objects.GarnetSyntheticTraffic.GarnetSyntheticTraffic object at 0x7fb370c00e48>, <m5.objects.GarnetSyntheticTraffic.GarnetSyntheticTraffic object at 0x7fb37077d160>, <m5.objects.GarnetSyntheticTraffic.GarnetSyntheticTraffic object at 0x7fb37077d438>, <m5.objects.GarnetSyntheticTraffic.GarnetSyntheticTraffic object at 0x7fb37077d710>, <m5.objects.GarnetSyntheticTraffic.GarnetSyntheticTraffic object at 0x7fb37077d9e8>, <m5.objects.GarnetSyntheticTraffic.GarnetSyntheticTraffic object at 0x7fb37077dcc0>, <m5.objects.GarnetSyntheticTraffic.GarnetSyntheticTraffic object at 0x7fb37077df98>, <m5.objects.GarnetSyntheticTraffic.GarnetSyntheticTraffic object at 0x7fb3707862b0>, <m5.objects.GarnetSyntheticTraffic.GarnetSyntheticTraffic object at 0x7fb370786588>, <m5.objects.GarnetSyntheticTraffic.GarnetSyntheticTraffic object at 0x7fb370786860>, <m5.objects.GarnetSyntheticTraffic.GarnetSyntheticTraffic object at 0x7fb370786b38>, <m5.objects.GarnetSyntheticTraffic.GarnetSyntheticTraffic object at 0x7fb370c00898>, <m5.objects.GarnetSyntheticTraffic.GarnetSyntheticTraffic object at 0x7fb370bf0eb8>, <m5.objects.GarnetSyntheticTraffic.GarnetSyntheticTraffic object at 0x7fb370bfa710>, <m5.objects.GarnetSyntheticTraffic.GarnetSyntheticTraffic object at 0x7fb370bfad68>, <m5.objects.GarnetSyntheticTraffic.GarnetSyntheticTraffic object at 0x7fb370786da0>, <m5.objects.GarnetSyntheticTraffic.GarnetSyntheticTraffic object at 0x7fb3707920b8>, <m5.objects.GarnetSyntheticTraffic.GarnetSyntheticTraffic object at 0x7fb370792390>, <m5.objects.GarnetSyntheticTraffic.GarnetSyntheticTraffic object at 0x7fb370792668>, <m5.objects.GarnetSyntheticTraffic.GarnetSyntheticTraffic object at 0x7fb370792940>, <m5.objects.GarnetSyntheticTraffic.GarnetSyntheticTraffic object at 0x7fb370792c18>, <m5.objects.GarnetSyntheticTraffic.GarnetSyntheticTraffic object at 0x7fb370792ef0>, <m5.objects.GarnetSyntheticTraffic.GarnetSyntheticTraffic object at 0x7fb370799208>, <m5.objects.GarnetSyntheticTraffic.GarnetSyntheticTraffic object at 0x7fb3707994e0>, <m5.objects.GarnetSyntheticTraffic.GarnetSyntheticTraffic object at 0x7fb3707997b8>, <m5.objects.GarnetSyntheticTraffic.GarnetSyntheticTraffic object at 0x7fb370799a90>, <m5.objects.GarnetSyntheticTraffic.GarnetSyntheticTraffic object at 0x7fb370799d68>, <m5.objects.GarnetSyntheticTraffic.GarnetSyntheticTraffic object at 0x7fb3707a1080>, <m5.objects.GarnetSyntheticTraffic.GarnetSyntheticTraffic object at 0x7fb3707a1358>, <m5.objects.GarnetSyntheticTraffic.GarnetSyntheticTraffic object at 0x7fb3707a1630>, <m5.objects.GarnetSyntheticTraffic.GarnetSyntheticTraffic object at 0x7fb3707a1908>, <m5.objects.GarnetSyntheticTraffic.GarnetSyntheticTraffic object at 0x7fb3707a1be0>, <m5.objects.GarnetSyntheticTraffic.GarnetSyntheticTraffic object at 0x7fb3707a1eb8>, <m5.objects.GarnetSyntheticTraffic.GarnetSyntheticTraffic object at 0x7fb3707aa1d0>, <m5.objects.GarnetSyntheticTraffic.GarnetSyntheticTraffic object at 0x7fb3707aa4a8>, <m5.objects.GarnetSyntheticTraffic.GarnetSyntheticTraffic object at 0x7fb3707aa780>, <m5.objects.GarnetSyntheticTraffic.GarnetSyntheticTraffic object at 0x7fb3707aaa58>, <m5.objects.GarnetSyntheticTraffic.GarnetSyntheticTraffic object at 0x7fb3707aad30>, <m5.objects.GarnetSyntheticTraffic.GarnetSyntheticTraffic object at 0x7fb3707b1048>])
ingesting configs/topologies/nr_list_mclb/kite_large_mclb.nrl
ingesting configs/topologies/vn_maps_mclb/kite_large_mclb_hops_4vns.vn
ext_cdc_required = True
