gem5 Simulator System.  https://www.gem5.org
gem5 is copyrighted software; use the --copyright option for details.

gem5 version 22.0.0.2
gem5 compiled Jun 17 2023 14:31:12
gem5 started Nov 18 2023 15:51:02
gem5 executing on mnemosyne14.ecn.purdue.edu, pid 24063
command line: ./build/Garnet_standalone/gem5.fast -d ./synth_outputs/simple/2b/mixed/mclb_hops_4_6_40cpus_4xdirs_4.0GHz/coh/ns_s_scop/0_195/ configs/auto_top/auto_top_synth.py --topology EscapeVirtualNetworks --noi_routers 20 --sim-cycles 2147483647 --injectionrate 0.195 --noc_clk 4.0GHz --sys-clock 4.0GHz --ruby-clock 4.0GHz --noi_clk 3.6GHz --router_map_file configs/topologies/paper_solutions/ns_s_scop.map --flat_vn_map_file configs/topologies/vn_maps_mclb/ns_s_scop_mclb_hops_4vns.vn --flat_nr_map_file configs/topologies/nr_list_mclb/ns_s_scop_mclb.nrl --ruby --mem_or_coh coh --mem-size 320000000 --num-dirs 160 --num-cpus 40 --network garnet --mem-type SimpleMemory --routing-algorithm 2 --use_escape_vns --synth_traffic --vcs-per-vnet 6 --evn_deadlock_partition 2 --evn_n_deadlock_free 1 --evn_min_n_deadlock_free 4

info: Standard input is not a terminal, disabling listeners.
ingesting configs/topologies/vn_maps_mclb/ns_s_scop_mclb_hops_4vns.vn
cpus(40)=[<m5.objects.GarnetSyntheticTraffic.GarnetSyntheticTraffic object at 0x7f3c9f9c1048>, <m5.objects.GarnetSyntheticTraffic.GarnetSyntheticTraffic object at 0x7f3c9f9c1e10>, <m5.objects.GarnetSyntheticTraffic.GarnetSyntheticTraffic object at 0x7f3c9f53d128>, <m5.objects.GarnetSyntheticTraffic.GarnetSyntheticTraffic object at 0x7f3c9f53d400>, <m5.objects.GarnetSyntheticTraffic.GarnetSyntheticTraffic object at 0x7f3c9f53d6d8>, <m5.objects.GarnetSyntheticTraffic.GarnetSyntheticTraffic object at 0x7f3c9f53d9b0>, <m5.objects.GarnetSyntheticTraffic.GarnetSyntheticTraffic object at 0x7f3c9f53dc88>, <m5.objects.GarnetSyntheticTraffic.GarnetSyntheticTraffic object at 0x7f3c9f53df60>, <m5.objects.GarnetSyntheticTraffic.GarnetSyntheticTraffic object at 0x7f3c9f546278>, <m5.objects.GarnetSyntheticTraffic.GarnetSyntheticTraffic object at 0x7f3c9f546550>, <m5.objects.GarnetSyntheticTraffic.GarnetSyntheticTraffic object at 0x7f3c9f546828>, <m5.objects.GarnetSyntheticTraffic.GarnetSyntheticTraffic object at 0x7f3c9f546b00>, <m5.objects.GarnetSyntheticTraffic.GarnetSyntheticTraffic object at 0x7f3c9f9c1860>, <m5.objects.GarnetSyntheticTraffic.GarnetSyntheticTraffic object at 0x7f3c9f9b0eb8>, <m5.objects.GarnetSyntheticTraffic.GarnetSyntheticTraffic object at 0x7f3c9f9bb6d8>, <m5.objects.GarnetSyntheticTraffic.GarnetSyntheticTraffic object at 0x7f3c9f9bbd30>, <m5.objects.GarnetSyntheticTraffic.GarnetSyntheticTraffic object at 0x7f3c9f546d68>, <m5.objects.GarnetSyntheticTraffic.GarnetSyntheticTraffic object at 0x7f3c9f552080>, <m5.objects.GarnetSyntheticTraffic.GarnetSyntheticTraffic object at 0x7f3c9f552358>, <m5.objects.GarnetSyntheticTraffic.GarnetSyntheticTraffic object at 0x7f3c9f552630>, <m5.objects.GarnetSyntheticTraffic.GarnetSyntheticTraffic object at 0x7f3c9f552908>, <m5.objects.GarnetSyntheticTraffic.GarnetSyntheticTraffic object at 0x7f3c9f552be0>, <m5.objects.GarnetSyntheticTraffic.GarnetSyntheticTraffic object at 0x7f3c9f552eb8>, <m5.objects.GarnetSyntheticTraffic.GarnetSyntheticTraffic object at 0x7f3c9f5591d0>, <m5.objects.GarnetSyntheticTraffic.GarnetSyntheticTraffic object at 0x7f3c9f5594a8>, <m5.objects.GarnetSyntheticTraffic.GarnetSyntheticTraffic object at 0x7f3c9f559780>, <m5.objects.GarnetSyntheticTraffic.GarnetSyntheticTraffic object at 0x7f3c9f559a58>, <m5.objects.GarnetSyntheticTraffic.GarnetSyntheticTraffic object at 0x7f3c9f559d30>, <m5.objects.GarnetSyntheticTraffic.GarnetSyntheticTraffic object at 0x7f3c9f561048>, <m5.objects.GarnetSyntheticTraffic.GarnetSyntheticTraffic object at 0x7f3c9f561320>, <m5.objects.GarnetSyntheticTraffic.GarnetSyntheticTraffic object at 0x7f3c9f5615f8>, <m5.objects.GarnetSyntheticTraffic.GarnetSyntheticTraffic object at 0x7f3c9f5618d0>, <m5.objects.GarnetSyntheticTraffic.GarnetSyntheticTraffic object at 0x7f3c9f561ba8>, <m5.objects.GarnetSyntheticTraffic.GarnetSyntheticTraffic object at 0x7f3c9f561e80>, <m5.objects.GarnetSyntheticTraffic.GarnetSyntheticTraffic object at 0x7f3c9f56a198>, <m5.objects.GarnetSyntheticTraffic.GarnetSyntheticTraffic object at 0x7f3c9f56a470>, <m5.objects.GarnetSyntheticTraffic.GarnetSyntheticTraffic object at 0x7f3c9f56a748>, <m5.objects.GarnetSyntheticTraffic.GarnetSyntheticTraffic object at 0x7f3c9f56aa20>, <m5.objects.GarnetSyntheticTraffic.GarnetSyntheticTraffic object at 0x7f3c9f56acf8>, <m5.objects.GarnetSyntheticTraffic.GarnetSyntheticTraffic object at 0x7f3c9f56afd0>])
ingesting configs/topologies/nr_list_mclb/ns_s_scop_mclb.nrl
ingesting configs/topologies/vn_maps_mclb/ns_s_scop_mclb_hops_4vns.vn
ext_cdc_required = True
