gem5 Simulator System.  https://www.gem5.org
gem5 is copyrighted software; use the --copyright option for details.

gem5 version 22.0.0.2
gem5 compiled Jun 17 2023 14:31:12
gem5 started Nov 18 2023 15:48:39
gem5 executing on mnemosyne14.ecn.purdue.edu, pid 23215
command line: ./build/Garnet_standalone/gem5.fast -d ./synth_outputs/simple/2b/mixed/mclb_hops_4_6_40cpus_4xdirs_4.0GHz/coh/ft_x/0_15/ configs/auto_top/auto_top_synth.py --topology EscapeVirtualNetworks --noi_routers 20 --sim-cycles 2147483647 --injectionrate 0.15 --noc_clk 4.0GHz --sys-clock 4.0GHz --ruby-clock 4.0GHz --noi_clk 3.0GHz --router_map_file configs/topologies/paper_solutions/ft_x.map --flat_vn_map_file configs/topologies/vn_maps_mclb/ft_x_mclb_hops_4vns.vn --flat_nr_map_file configs/topologies/nr_list_mclb/ft_x_mclb.nrl --ruby --mem_or_coh coh --mem-size 320000000 --num-dirs 160 --num-cpus 40 --network garnet --mem-type SimpleMemory --routing-algorithm 2 --use_escape_vns --synth_traffic --vcs-per-vnet 6 --evn_deadlock_partition 2 --evn_n_deadlock_free 1 --evn_min_n_deadlock_free 4

info: Standard input is not a terminal, disabling listeners.
ingesting configs/topologies/vn_maps_mclb/ft_x_mclb_hops_4vns.vn
cpus(40)=[<m5.objects.GarnetSyntheticTraffic.GarnetSyntheticTraffic object at 0x7f34d91e8048>, <m5.objects.GarnetSyntheticTraffic.GarnetSyntheticTraffic object at 0x7f34d91e8e10>, <m5.objects.GarnetSyntheticTraffic.GarnetSyntheticTraffic object at 0x7f34d8d65128>, <m5.objects.GarnetSyntheticTraffic.GarnetSyntheticTraffic object at 0x7f34d8d65400>, <m5.objects.GarnetSyntheticTraffic.GarnetSyntheticTraffic object at 0x7f34d8d656d8>, <m5.objects.GarnetSyntheticTraffic.GarnetSyntheticTraffic object at 0x7f34d8d659b0>, <m5.objects.GarnetSyntheticTraffic.GarnetSyntheticTraffic object at 0x7f34d8d65c88>, <m5.objects.GarnetSyntheticTraffic.GarnetSyntheticTraffic object at 0x7f34d8d65f60>, <m5.objects.GarnetSyntheticTraffic.GarnetSyntheticTraffic object at 0x7f34d8d6e278>, <m5.objects.GarnetSyntheticTraffic.GarnetSyntheticTraffic object at 0x7f34d8d6e550>, <m5.objects.GarnetSyntheticTraffic.GarnetSyntheticTraffic object at 0x7f34d8d6e828>, <m5.objects.GarnetSyntheticTraffic.GarnetSyntheticTraffic object at 0x7f34d8d6eb00>, <m5.objects.GarnetSyntheticTraffic.GarnetSyntheticTraffic object at 0x7f34d91e8860>, <m5.objects.GarnetSyntheticTraffic.GarnetSyntheticTraffic object at 0x7f34d91d7eb8>, <m5.objects.GarnetSyntheticTraffic.GarnetSyntheticTraffic object at 0x7f34d91e26d8>, <m5.objects.GarnetSyntheticTraffic.GarnetSyntheticTraffic object at 0x7f34d91e2d30>, <m5.objects.GarnetSyntheticTraffic.GarnetSyntheticTraffic object at 0x7f34d8d6ed68>, <m5.objects.GarnetSyntheticTraffic.GarnetSyntheticTraffic object at 0x7f34d8d7a080>, <m5.objects.GarnetSyntheticTraffic.GarnetSyntheticTraffic object at 0x7f34d8d7a358>, <m5.objects.GarnetSyntheticTraffic.GarnetSyntheticTraffic object at 0x7f34d8d7a630>, <m5.objects.GarnetSyntheticTraffic.GarnetSyntheticTraffic object at 0x7f34d8d7a908>, <m5.objects.GarnetSyntheticTraffic.GarnetSyntheticTraffic object at 0x7f34d8d7abe0>, <m5.objects.GarnetSyntheticTraffic.GarnetSyntheticTraffic object at 0x7f34d8d7aeb8>, <m5.objects.GarnetSyntheticTraffic.GarnetSyntheticTraffic object at 0x7f34d8d811d0>, <m5.objects.GarnetSyntheticTraffic.GarnetSyntheticTraffic object at 0x7f34d8d814a8>, <m5.objects.GarnetSyntheticTraffic.GarnetSyntheticTraffic object at 0x7f34d8d81780>, <m5.objects.GarnetSyntheticTraffic.GarnetSyntheticTraffic object at 0x7f34d8d81a58>, <m5.objects.GarnetSyntheticTraffic.GarnetSyntheticTraffic object at 0x7f34d8d81d30>, <m5.objects.GarnetSyntheticTraffic.GarnetSyntheticTraffic object at 0x7f34d8d89048>, <m5.objects.GarnetSyntheticTraffic.GarnetSyntheticTraffic object at 0x7f34d8d89320>, <m5.objects.GarnetSyntheticTraffic.GarnetSyntheticTraffic object at 0x7f34d8d895f8>, <m5.objects.GarnetSyntheticTraffic.GarnetSyntheticTraffic object at 0x7f34d8d898d0>, <m5.objects.GarnetSyntheticTraffic.GarnetSyntheticTraffic object at 0x7f34d8d89ba8>, <m5.objects.GarnetSyntheticTraffic.GarnetSyntheticTraffic object at 0x7f34d8d89e80>, <m5.objects.GarnetSyntheticTraffic.GarnetSyntheticTraffic object at 0x7f34d8d92198>, <m5.objects.GarnetSyntheticTraffic.GarnetSyntheticTraffic object at 0x7f34d8d92470>, <m5.objects.GarnetSyntheticTraffic.GarnetSyntheticTraffic object at 0x7f34d8d92748>, <m5.objects.GarnetSyntheticTraffic.GarnetSyntheticTraffic object at 0x7f34d8d92a20>, <m5.objects.GarnetSyntheticTraffic.GarnetSyntheticTraffic object at 0x7f34d8d92cf8>, <m5.objects.GarnetSyntheticTraffic.GarnetSyntheticTraffic object at 0x7f34d8d92fd0>])
ingesting configs/topologies/nr_list_mclb/ft_x_mclb.nrl
ingesting configs/topologies/vn_maps_mclb/ft_x_mclb_hops_4vns.vn
ext_cdc_required = True
