
---------- Begin Simulation Statistics ----------
simSeconds                                   0.002147                       # Number of seconds simulated (Second)
simTicks                                   2147483750                       # Number of ticks simulated (Tick)
finalTick                                  2147483750                       # Number of ticks from beginning of simulation (restored from checkpoints and never reset) (Tick)
simFreq                                  1000000000000                       # The number of ticks per simulated second ((Tick/Second))
hostSeconds                                   7080.86                       # Real time elapsed on the host (Second)
hostTickRate                                   303280                       # The number of ticks simulated per host second (ticks/s) ((Tick/Second))
hostMemory                                    2880540                       # Number of bytes of host memory used (Byte)
system.clk_domain.clock                           250                       # Clock period in ticks (Tick)
system.cpu0.power_state.pwrStateResidencyTicks::UNDEFINED   2147483750                       # Cumulative time (in ticks) in various power states (Tick)
system.cpu1.power_state.pwrStateResidencyTicks::UNDEFINED   2147483750                       # Cumulative time (in ticks) in various power states (Tick)
system.cpu10.power_state.pwrStateResidencyTicks::UNDEFINED   2147483750                       # Cumulative time (in ticks) in various power states (Tick)
system.cpu11.power_state.pwrStateResidencyTicks::UNDEFINED   2147483750                       # Cumulative time (in ticks) in various power states (Tick)
system.cpu12.power_state.pwrStateResidencyTicks::UNDEFINED   2147483750                       # Cumulative time (in ticks) in various power states (Tick)
system.cpu13.power_state.pwrStateResidencyTicks::UNDEFINED   2147483750                       # Cumulative time (in ticks) in various power states (Tick)
system.cpu14.power_state.pwrStateResidencyTicks::UNDEFINED   2147483750                       # Cumulative time (in ticks) in various power states (Tick)
system.cpu15.power_state.pwrStateResidencyTicks::UNDEFINED   2147483750                       # Cumulative time (in ticks) in various power states (Tick)
system.cpu16.power_state.pwrStateResidencyTicks::UNDEFINED   2147483750                       # Cumulative time (in ticks) in various power states (Tick)
system.cpu17.power_state.pwrStateResidencyTicks::UNDEFINED   2147483750                       # Cumulative time (in ticks) in various power states (Tick)
system.cpu18.power_state.pwrStateResidencyTicks::UNDEFINED   2147483750                       # Cumulative time (in ticks) in various power states (Tick)
system.cpu19.power_state.pwrStateResidencyTicks::UNDEFINED   2147483750                       # Cumulative time (in ticks) in various power states (Tick)
system.cpu2.power_state.pwrStateResidencyTicks::UNDEFINED   2147483750                       # Cumulative time (in ticks) in various power states (Tick)
system.cpu20.power_state.pwrStateResidencyTicks::UNDEFINED   2147483750                       # Cumulative time (in ticks) in various power states (Tick)
system.cpu21.power_state.pwrStateResidencyTicks::UNDEFINED   2147483750                       # Cumulative time (in ticks) in various power states (Tick)
system.cpu22.power_state.pwrStateResidencyTicks::UNDEFINED   2147483750                       # Cumulative time (in ticks) in various power states (Tick)
system.cpu23.power_state.pwrStateResidencyTicks::UNDEFINED   2147483750                       # Cumulative time (in ticks) in various power states (Tick)
system.cpu24.power_state.pwrStateResidencyTicks::UNDEFINED   2147483750                       # Cumulative time (in ticks) in various power states (Tick)
system.cpu25.power_state.pwrStateResidencyTicks::UNDEFINED   2147483750                       # Cumulative time (in ticks) in various power states (Tick)
system.cpu26.power_state.pwrStateResidencyTicks::UNDEFINED   2147483750                       # Cumulative time (in ticks) in various power states (Tick)
system.cpu27.power_state.pwrStateResidencyTicks::UNDEFINED   2147483750                       # Cumulative time (in ticks) in various power states (Tick)
system.cpu28.power_state.pwrStateResidencyTicks::UNDEFINED   2147483750                       # Cumulative time (in ticks) in various power states (Tick)
system.cpu29.power_state.pwrStateResidencyTicks::UNDEFINED   2147483750                       # Cumulative time (in ticks) in various power states (Tick)
system.cpu3.power_state.pwrStateResidencyTicks::UNDEFINED   2147483750                       # Cumulative time (in ticks) in various power states (Tick)
system.cpu30.power_state.pwrStateResidencyTicks::UNDEFINED   2147483750                       # Cumulative time (in ticks) in various power states (Tick)
system.cpu31.power_state.pwrStateResidencyTicks::UNDEFINED   2147483750                       # Cumulative time (in ticks) in various power states (Tick)
system.cpu32.power_state.pwrStateResidencyTicks::UNDEFINED   2147483750                       # Cumulative time (in ticks) in various power states (Tick)
system.cpu33.power_state.pwrStateResidencyTicks::UNDEFINED   2147483750                       # Cumulative time (in ticks) in various power states (Tick)
system.cpu34.power_state.pwrStateResidencyTicks::UNDEFINED   2147483750                       # Cumulative time (in ticks) in various power states (Tick)
system.cpu35.power_state.pwrStateResidencyTicks::UNDEFINED   2147483750                       # Cumulative time (in ticks) in various power states (Tick)
system.cpu36.power_state.pwrStateResidencyTicks::UNDEFINED   2147483750                       # Cumulative time (in ticks) in various power states (Tick)
system.cpu37.power_state.pwrStateResidencyTicks::UNDEFINED   2147483750                       # Cumulative time (in ticks) in various power states (Tick)
system.cpu38.power_state.pwrStateResidencyTicks::UNDEFINED   2147483750                       # Cumulative time (in ticks) in various power states (Tick)
system.cpu39.power_state.pwrStateResidencyTicks::UNDEFINED   2147483750                       # Cumulative time (in ticks) in various power states (Tick)
system.cpu4.power_state.pwrStateResidencyTicks::UNDEFINED   2147483750                       # Cumulative time (in ticks) in various power states (Tick)
system.cpu5.power_state.pwrStateResidencyTicks::UNDEFINED   2147483750                       # Cumulative time (in ticks) in various power states (Tick)
system.cpu6.power_state.pwrStateResidencyTicks::UNDEFINED   2147483750                       # Cumulative time (in ticks) in various power states (Tick)
system.cpu7.power_state.pwrStateResidencyTicks::UNDEFINED   2147483750                       # Cumulative time (in ticks) in various power states (Tick)
system.cpu8.power_state.pwrStateResidencyTicks::UNDEFINED   2147483750                       # Cumulative time (in ticks) in various power states (Tick)
system.cpu9.power_state.pwrStateResidencyTicks::UNDEFINED   2147483750                       # Cumulative time (in ticks) in various power states (Tick)
system.mem_ctrls0.power_state.pwrStateResidencyTicks::UNDEFINED   2147483750                       # Cumulative time (in ticks) in various power states (Tick)
system.mem_ctrls1.power_state.pwrStateResidencyTicks::UNDEFINED   2147483750                       # Cumulative time (in ticks) in various power states (Tick)
system.mem_ctrls10.power_state.pwrStateResidencyTicks::UNDEFINED   2147483750                       # Cumulative time (in ticks) in various power states (Tick)
system.mem_ctrls100.power_state.pwrStateResidencyTicks::UNDEFINED   2147483750                       # Cumulative time (in ticks) in various power states (Tick)
system.mem_ctrls101.power_state.pwrStateResidencyTicks::UNDEFINED   2147483750                       # Cumulative time (in ticks) in various power states (Tick)
system.mem_ctrls102.power_state.pwrStateResidencyTicks::UNDEFINED   2147483750                       # Cumulative time (in ticks) in various power states (Tick)
system.mem_ctrls103.power_state.pwrStateResidencyTicks::UNDEFINED   2147483750                       # Cumulative time (in ticks) in various power states (Tick)
system.mem_ctrls104.power_state.pwrStateResidencyTicks::UNDEFINED   2147483750                       # Cumulative time (in ticks) in various power states (Tick)
system.mem_ctrls105.power_state.pwrStateResidencyTicks::UNDEFINED   2147483750                       # Cumulative time (in ticks) in various power states (Tick)
system.mem_ctrls106.power_state.pwrStateResidencyTicks::UNDEFINED   2147483750                       # Cumulative time (in ticks) in various power states (Tick)
system.mem_ctrls107.power_state.pwrStateResidencyTicks::UNDEFINED   2147483750                       # Cumulative time (in ticks) in various power states (Tick)
system.mem_ctrls108.power_state.pwrStateResidencyTicks::UNDEFINED   2147483750                       # Cumulative time (in ticks) in various power states (Tick)
system.mem_ctrls109.power_state.pwrStateResidencyTicks::UNDEFINED   2147483750                       # Cumulative time (in ticks) in various power states (Tick)
system.mem_ctrls11.power_state.pwrStateResidencyTicks::UNDEFINED   2147483750                       # Cumulative time (in ticks) in various power states (Tick)
system.mem_ctrls110.power_state.pwrStateResidencyTicks::UNDEFINED   2147483750                       # Cumulative time (in ticks) in various power states (Tick)
system.mem_ctrls111.power_state.pwrStateResidencyTicks::UNDEFINED   2147483750                       # Cumulative time (in ticks) in various power states (Tick)
system.mem_ctrls112.power_state.pwrStateResidencyTicks::UNDEFINED   2147483750                       # Cumulative time (in ticks) in various power states (Tick)
system.mem_ctrls113.power_state.pwrStateResidencyTicks::UNDEFINED   2147483750                       # Cumulative time (in ticks) in various power states (Tick)
system.mem_ctrls114.power_state.pwrStateResidencyTicks::UNDEFINED   2147483750                       # Cumulative time (in ticks) in various power states (Tick)
system.mem_ctrls115.power_state.pwrStateResidencyTicks::UNDEFINED   2147483750                       # Cumulative time (in ticks) in various power states (Tick)
system.mem_ctrls116.power_state.pwrStateResidencyTicks::UNDEFINED   2147483750                       # Cumulative time (in ticks) in various power states (Tick)
system.mem_ctrls117.power_state.pwrStateResidencyTicks::UNDEFINED   2147483750                       # Cumulative time (in ticks) in various power states (Tick)
system.mem_ctrls118.power_state.pwrStateResidencyTicks::UNDEFINED   2147483750                       # Cumulative time (in ticks) in various power states (Tick)
system.mem_ctrls119.power_state.pwrStateResidencyTicks::UNDEFINED   2147483750                       # Cumulative time (in ticks) in various power states (Tick)
system.mem_ctrls12.power_state.pwrStateResidencyTicks::UNDEFINED   2147483750                       # Cumulative time (in ticks) in various power states (Tick)
system.mem_ctrls120.power_state.pwrStateResidencyTicks::UNDEFINED   2147483750                       # Cumulative time (in ticks) in various power states (Tick)
system.mem_ctrls121.power_state.pwrStateResidencyTicks::UNDEFINED   2147483750                       # Cumulative time (in ticks) in various power states (Tick)
system.mem_ctrls122.power_state.pwrStateResidencyTicks::UNDEFINED   2147483750                       # Cumulative time (in ticks) in various power states (Tick)
system.mem_ctrls123.power_state.pwrStateResidencyTicks::UNDEFINED   2147483750                       # Cumulative time (in ticks) in various power states (Tick)
system.mem_ctrls124.power_state.pwrStateResidencyTicks::UNDEFINED   2147483750                       # Cumulative time (in ticks) in various power states (Tick)
system.mem_ctrls125.power_state.pwrStateResidencyTicks::UNDEFINED   2147483750                       # Cumulative time (in ticks) in various power states (Tick)
system.mem_ctrls126.power_state.pwrStateResidencyTicks::UNDEFINED   2147483750                       # Cumulative time (in ticks) in various power states (Tick)
system.mem_ctrls127.power_state.pwrStateResidencyTicks::UNDEFINED   2147483750                       # Cumulative time (in ticks) in various power states (Tick)
system.mem_ctrls128.power_state.pwrStateResidencyTicks::UNDEFINED   2147483750                       # Cumulative time (in ticks) in various power states (Tick)
system.mem_ctrls129.power_state.pwrStateResidencyTicks::UNDEFINED   2147483750                       # Cumulative time (in ticks) in various power states (Tick)
system.mem_ctrls13.power_state.pwrStateResidencyTicks::UNDEFINED   2147483750                       # Cumulative time (in ticks) in various power states (Tick)
system.mem_ctrls130.power_state.pwrStateResidencyTicks::UNDEFINED   2147483750                       # Cumulative time (in ticks) in various power states (Tick)
system.mem_ctrls131.power_state.pwrStateResidencyTicks::UNDEFINED   2147483750                       # Cumulative time (in ticks) in various power states (Tick)
system.mem_ctrls132.power_state.pwrStateResidencyTicks::UNDEFINED   2147483750                       # Cumulative time (in ticks) in various power states (Tick)
system.mem_ctrls133.power_state.pwrStateResidencyTicks::UNDEFINED   2147483750                       # Cumulative time (in ticks) in various power states (Tick)
system.mem_ctrls134.power_state.pwrStateResidencyTicks::UNDEFINED   2147483750                       # Cumulative time (in ticks) in various power states (Tick)
system.mem_ctrls135.power_state.pwrStateResidencyTicks::UNDEFINED   2147483750                       # Cumulative time (in ticks) in various power states (Tick)
system.mem_ctrls136.power_state.pwrStateResidencyTicks::UNDEFINED   2147483750                       # Cumulative time (in ticks) in various power states (Tick)
system.mem_ctrls137.power_state.pwrStateResidencyTicks::UNDEFINED   2147483750                       # Cumulative time (in ticks) in various power states (Tick)
system.mem_ctrls138.power_state.pwrStateResidencyTicks::UNDEFINED   2147483750                       # Cumulative time (in ticks) in various power states (Tick)
system.mem_ctrls139.power_state.pwrStateResidencyTicks::UNDEFINED   2147483750                       # Cumulative time (in ticks) in various power states (Tick)
system.mem_ctrls14.power_state.pwrStateResidencyTicks::UNDEFINED   2147483750                       # Cumulative time (in ticks) in various power states (Tick)
system.mem_ctrls140.power_state.pwrStateResidencyTicks::UNDEFINED   2147483750                       # Cumulative time (in ticks) in various power states (Tick)
system.mem_ctrls141.power_state.pwrStateResidencyTicks::UNDEFINED   2147483750                       # Cumulative time (in ticks) in various power states (Tick)
system.mem_ctrls142.power_state.pwrStateResidencyTicks::UNDEFINED   2147483750                       # Cumulative time (in ticks) in various power states (Tick)
system.mem_ctrls143.power_state.pwrStateResidencyTicks::UNDEFINED   2147483750                       # Cumulative time (in ticks) in various power states (Tick)
system.mem_ctrls144.power_state.pwrStateResidencyTicks::UNDEFINED   2147483750                       # Cumulative time (in ticks) in various power states (Tick)
system.mem_ctrls145.power_state.pwrStateResidencyTicks::UNDEFINED   2147483750                       # Cumulative time (in ticks) in various power states (Tick)
system.mem_ctrls146.power_state.pwrStateResidencyTicks::UNDEFINED   2147483750                       # Cumulative time (in ticks) in various power states (Tick)
system.mem_ctrls147.power_state.pwrStateResidencyTicks::UNDEFINED   2147483750                       # Cumulative time (in ticks) in various power states (Tick)
system.mem_ctrls148.power_state.pwrStateResidencyTicks::UNDEFINED   2147483750                       # Cumulative time (in ticks) in various power states (Tick)
system.mem_ctrls149.power_state.pwrStateResidencyTicks::UNDEFINED   2147483750                       # Cumulative time (in ticks) in various power states (Tick)
system.mem_ctrls15.power_state.pwrStateResidencyTicks::UNDEFINED   2147483750                       # Cumulative time (in ticks) in various power states (Tick)
system.mem_ctrls150.power_state.pwrStateResidencyTicks::UNDEFINED   2147483750                       # Cumulative time (in ticks) in various power states (Tick)
system.mem_ctrls151.power_state.pwrStateResidencyTicks::UNDEFINED   2147483750                       # Cumulative time (in ticks) in various power states (Tick)
system.mem_ctrls152.power_state.pwrStateResidencyTicks::UNDEFINED   2147483750                       # Cumulative time (in ticks) in various power states (Tick)
system.mem_ctrls153.power_state.pwrStateResidencyTicks::UNDEFINED   2147483750                       # Cumulative time (in ticks) in various power states (Tick)
system.mem_ctrls154.power_state.pwrStateResidencyTicks::UNDEFINED   2147483750                       # Cumulative time (in ticks) in various power states (Tick)
system.mem_ctrls155.power_state.pwrStateResidencyTicks::UNDEFINED   2147483750                       # Cumulative time (in ticks) in various power states (Tick)
system.mem_ctrls156.power_state.pwrStateResidencyTicks::UNDEFINED   2147483750                       # Cumulative time (in ticks) in various power states (Tick)
system.mem_ctrls157.power_state.pwrStateResidencyTicks::UNDEFINED   2147483750                       # Cumulative time (in ticks) in various power states (Tick)
system.mem_ctrls158.power_state.pwrStateResidencyTicks::UNDEFINED   2147483750                       # Cumulative time (in ticks) in various power states (Tick)
system.mem_ctrls159.power_state.pwrStateResidencyTicks::UNDEFINED   2147483750                       # Cumulative time (in ticks) in various power states (Tick)
system.mem_ctrls16.power_state.pwrStateResidencyTicks::UNDEFINED   2147483750                       # Cumulative time (in ticks) in various power states (Tick)
system.mem_ctrls17.power_state.pwrStateResidencyTicks::UNDEFINED   2147483750                       # Cumulative time (in ticks) in various power states (Tick)
system.mem_ctrls18.power_state.pwrStateResidencyTicks::UNDEFINED   2147483750                       # Cumulative time (in ticks) in various power states (Tick)
system.mem_ctrls19.power_state.pwrStateResidencyTicks::UNDEFINED   2147483750                       # Cumulative time (in ticks) in various power states (Tick)
system.mem_ctrls2.power_state.pwrStateResidencyTicks::UNDEFINED   2147483750                       # Cumulative time (in ticks) in various power states (Tick)
system.mem_ctrls20.power_state.pwrStateResidencyTicks::UNDEFINED   2147483750                       # Cumulative time (in ticks) in various power states (Tick)
system.mem_ctrls21.power_state.pwrStateResidencyTicks::UNDEFINED   2147483750                       # Cumulative time (in ticks) in various power states (Tick)
system.mem_ctrls22.power_state.pwrStateResidencyTicks::UNDEFINED   2147483750                       # Cumulative time (in ticks) in various power states (Tick)
system.mem_ctrls23.power_state.pwrStateResidencyTicks::UNDEFINED   2147483750                       # Cumulative time (in ticks) in various power states (Tick)
system.mem_ctrls24.power_state.pwrStateResidencyTicks::UNDEFINED   2147483750                       # Cumulative time (in ticks) in various power states (Tick)
system.mem_ctrls25.power_state.pwrStateResidencyTicks::UNDEFINED   2147483750                       # Cumulative time (in ticks) in various power states (Tick)
system.mem_ctrls26.power_state.pwrStateResidencyTicks::UNDEFINED   2147483750                       # Cumulative time (in ticks) in various power states (Tick)
system.mem_ctrls27.power_state.pwrStateResidencyTicks::UNDEFINED   2147483750                       # Cumulative time (in ticks) in various power states (Tick)
system.mem_ctrls28.power_state.pwrStateResidencyTicks::UNDEFINED   2147483750                       # Cumulative time (in ticks) in various power states (Tick)
system.mem_ctrls29.power_state.pwrStateResidencyTicks::UNDEFINED   2147483750                       # Cumulative time (in ticks) in various power states (Tick)
system.mem_ctrls3.power_state.pwrStateResidencyTicks::UNDEFINED   2147483750                       # Cumulative time (in ticks) in various power states (Tick)
system.mem_ctrls30.power_state.pwrStateResidencyTicks::UNDEFINED   2147483750                       # Cumulative time (in ticks) in various power states (Tick)
system.mem_ctrls31.power_state.pwrStateResidencyTicks::UNDEFINED   2147483750                       # Cumulative time (in ticks) in various power states (Tick)
system.mem_ctrls32.power_state.pwrStateResidencyTicks::UNDEFINED   2147483750                       # Cumulative time (in ticks) in various power states (Tick)
system.mem_ctrls33.power_state.pwrStateResidencyTicks::UNDEFINED   2147483750                       # Cumulative time (in ticks) in various power states (Tick)
system.mem_ctrls34.power_state.pwrStateResidencyTicks::UNDEFINED   2147483750                       # Cumulative time (in ticks) in various power states (Tick)
system.mem_ctrls35.power_state.pwrStateResidencyTicks::UNDEFINED   2147483750                       # Cumulative time (in ticks) in various power states (Tick)
system.mem_ctrls36.power_state.pwrStateResidencyTicks::UNDEFINED   2147483750                       # Cumulative time (in ticks) in various power states (Tick)
system.mem_ctrls37.power_state.pwrStateResidencyTicks::UNDEFINED   2147483750                       # Cumulative time (in ticks) in various power states (Tick)
system.mem_ctrls38.power_state.pwrStateResidencyTicks::UNDEFINED   2147483750                       # Cumulative time (in ticks) in various power states (Tick)
system.mem_ctrls39.power_state.pwrStateResidencyTicks::UNDEFINED   2147483750                       # Cumulative time (in ticks) in various power states (Tick)
system.mem_ctrls4.power_state.pwrStateResidencyTicks::UNDEFINED   2147483750                       # Cumulative time (in ticks) in various power states (Tick)
system.mem_ctrls40.power_state.pwrStateResidencyTicks::UNDEFINED   2147483750                       # Cumulative time (in ticks) in various power states (Tick)
system.mem_ctrls41.power_state.pwrStateResidencyTicks::UNDEFINED   2147483750                       # Cumulative time (in ticks) in various power states (Tick)
system.mem_ctrls42.power_state.pwrStateResidencyTicks::UNDEFINED   2147483750                       # Cumulative time (in ticks) in various power states (Tick)
system.mem_ctrls43.power_state.pwrStateResidencyTicks::UNDEFINED   2147483750                       # Cumulative time (in ticks) in various power states (Tick)
system.mem_ctrls44.power_state.pwrStateResidencyTicks::UNDEFINED   2147483750                       # Cumulative time (in ticks) in various power states (Tick)
system.mem_ctrls45.power_state.pwrStateResidencyTicks::UNDEFINED   2147483750                       # Cumulative time (in ticks) in various power states (Tick)
system.mem_ctrls46.power_state.pwrStateResidencyTicks::UNDEFINED   2147483750                       # Cumulative time (in ticks) in various power states (Tick)
system.mem_ctrls47.power_state.pwrStateResidencyTicks::UNDEFINED   2147483750                       # Cumulative time (in ticks) in various power states (Tick)
system.mem_ctrls48.power_state.pwrStateResidencyTicks::UNDEFINED   2147483750                       # Cumulative time (in ticks) in various power states (Tick)
system.mem_ctrls49.power_state.pwrStateResidencyTicks::UNDEFINED   2147483750                       # Cumulative time (in ticks) in various power states (Tick)
system.mem_ctrls5.power_state.pwrStateResidencyTicks::UNDEFINED   2147483750                       # Cumulative time (in ticks) in various power states (Tick)
system.mem_ctrls50.power_state.pwrStateResidencyTicks::UNDEFINED   2147483750                       # Cumulative time (in ticks) in various power states (Tick)
system.mem_ctrls51.power_state.pwrStateResidencyTicks::UNDEFINED   2147483750                       # Cumulative time (in ticks) in various power states (Tick)
system.mem_ctrls52.power_state.pwrStateResidencyTicks::UNDEFINED   2147483750                       # Cumulative time (in ticks) in various power states (Tick)
system.mem_ctrls53.power_state.pwrStateResidencyTicks::UNDEFINED   2147483750                       # Cumulative time (in ticks) in various power states (Tick)
system.mem_ctrls54.power_state.pwrStateResidencyTicks::UNDEFINED   2147483750                       # Cumulative time (in ticks) in various power states (Tick)
system.mem_ctrls55.power_state.pwrStateResidencyTicks::UNDEFINED   2147483750                       # Cumulative time (in ticks) in various power states (Tick)
system.mem_ctrls56.power_state.pwrStateResidencyTicks::UNDEFINED   2147483750                       # Cumulative time (in ticks) in various power states (Tick)
system.mem_ctrls57.power_state.pwrStateResidencyTicks::UNDEFINED   2147483750                       # Cumulative time (in ticks) in various power states (Tick)
system.mem_ctrls58.power_state.pwrStateResidencyTicks::UNDEFINED   2147483750                       # Cumulative time (in ticks) in various power states (Tick)
system.mem_ctrls59.power_state.pwrStateResidencyTicks::UNDEFINED   2147483750                       # Cumulative time (in ticks) in various power states (Tick)
system.mem_ctrls6.power_state.pwrStateResidencyTicks::UNDEFINED   2147483750                       # Cumulative time (in ticks) in various power states (Tick)
system.mem_ctrls60.power_state.pwrStateResidencyTicks::UNDEFINED   2147483750                       # Cumulative time (in ticks) in various power states (Tick)
system.mem_ctrls61.power_state.pwrStateResidencyTicks::UNDEFINED   2147483750                       # Cumulative time (in ticks) in various power states (Tick)
system.mem_ctrls62.power_state.pwrStateResidencyTicks::UNDEFINED   2147483750                       # Cumulative time (in ticks) in various power states (Tick)
system.mem_ctrls63.power_state.pwrStateResidencyTicks::UNDEFINED   2147483750                       # Cumulative time (in ticks) in various power states (Tick)
system.mem_ctrls64.power_state.pwrStateResidencyTicks::UNDEFINED   2147483750                       # Cumulative time (in ticks) in various power states (Tick)
system.mem_ctrls65.power_state.pwrStateResidencyTicks::UNDEFINED   2147483750                       # Cumulative time (in ticks) in various power states (Tick)
system.mem_ctrls66.power_state.pwrStateResidencyTicks::UNDEFINED   2147483750                       # Cumulative time (in ticks) in various power states (Tick)
system.mem_ctrls67.power_state.pwrStateResidencyTicks::UNDEFINED   2147483750                       # Cumulative time (in ticks) in various power states (Tick)
system.mem_ctrls68.power_state.pwrStateResidencyTicks::UNDEFINED   2147483750                       # Cumulative time (in ticks) in various power states (Tick)
system.mem_ctrls69.power_state.pwrStateResidencyTicks::UNDEFINED   2147483750                       # Cumulative time (in ticks) in various power states (Tick)
system.mem_ctrls7.power_state.pwrStateResidencyTicks::UNDEFINED   2147483750                       # Cumulative time (in ticks) in various power states (Tick)
system.mem_ctrls70.power_state.pwrStateResidencyTicks::UNDEFINED   2147483750                       # Cumulative time (in ticks) in various power states (Tick)
system.mem_ctrls71.power_state.pwrStateResidencyTicks::UNDEFINED   2147483750                       # Cumulative time (in ticks) in various power states (Tick)
system.mem_ctrls72.power_state.pwrStateResidencyTicks::UNDEFINED   2147483750                       # Cumulative time (in ticks) in various power states (Tick)
system.mem_ctrls73.power_state.pwrStateResidencyTicks::UNDEFINED   2147483750                       # Cumulative time (in ticks) in various power states (Tick)
system.mem_ctrls74.power_state.pwrStateResidencyTicks::UNDEFINED   2147483750                       # Cumulative time (in ticks) in various power states (Tick)
system.mem_ctrls75.power_state.pwrStateResidencyTicks::UNDEFINED   2147483750                       # Cumulative time (in ticks) in various power states (Tick)
system.mem_ctrls76.power_state.pwrStateResidencyTicks::UNDEFINED   2147483750                       # Cumulative time (in ticks) in various power states (Tick)
system.mem_ctrls77.power_state.pwrStateResidencyTicks::UNDEFINED   2147483750                       # Cumulative time (in ticks) in various power states (Tick)
system.mem_ctrls78.power_state.pwrStateResidencyTicks::UNDEFINED   2147483750                       # Cumulative time (in ticks) in various power states (Tick)
system.mem_ctrls79.power_state.pwrStateResidencyTicks::UNDEFINED   2147483750                       # Cumulative time (in ticks) in various power states (Tick)
system.mem_ctrls8.power_state.pwrStateResidencyTicks::UNDEFINED   2147483750                       # Cumulative time (in ticks) in various power states (Tick)
system.mem_ctrls80.power_state.pwrStateResidencyTicks::UNDEFINED   2147483750                       # Cumulative time (in ticks) in various power states (Tick)
system.mem_ctrls81.power_state.pwrStateResidencyTicks::UNDEFINED   2147483750                       # Cumulative time (in ticks) in various power states (Tick)
system.mem_ctrls82.power_state.pwrStateResidencyTicks::UNDEFINED   2147483750                       # Cumulative time (in ticks) in various power states (Tick)
system.mem_ctrls83.power_state.pwrStateResidencyTicks::UNDEFINED   2147483750                       # Cumulative time (in ticks) in various power states (Tick)
system.mem_ctrls84.power_state.pwrStateResidencyTicks::UNDEFINED   2147483750                       # Cumulative time (in ticks) in various power states (Tick)
system.mem_ctrls85.power_state.pwrStateResidencyTicks::UNDEFINED   2147483750                       # Cumulative time (in ticks) in various power states (Tick)
system.mem_ctrls86.power_state.pwrStateResidencyTicks::UNDEFINED   2147483750                       # Cumulative time (in ticks) in various power states (Tick)
system.mem_ctrls87.power_state.pwrStateResidencyTicks::UNDEFINED   2147483750                       # Cumulative time (in ticks) in various power states (Tick)
system.mem_ctrls88.power_state.pwrStateResidencyTicks::UNDEFINED   2147483750                       # Cumulative time (in ticks) in various power states (Tick)
system.mem_ctrls89.power_state.pwrStateResidencyTicks::UNDEFINED   2147483750                       # Cumulative time (in ticks) in various power states (Tick)
system.mem_ctrls9.power_state.pwrStateResidencyTicks::UNDEFINED   2147483750                       # Cumulative time (in ticks) in various power states (Tick)
system.mem_ctrls90.power_state.pwrStateResidencyTicks::UNDEFINED   2147483750                       # Cumulative time (in ticks) in various power states (Tick)
system.mem_ctrls91.power_state.pwrStateResidencyTicks::UNDEFINED   2147483750                       # Cumulative time (in ticks) in various power states (Tick)
system.mem_ctrls92.power_state.pwrStateResidencyTicks::UNDEFINED   2147483750                       # Cumulative time (in ticks) in various power states (Tick)
system.mem_ctrls93.power_state.pwrStateResidencyTicks::UNDEFINED   2147483750                       # Cumulative time (in ticks) in various power states (Tick)
system.mem_ctrls94.power_state.pwrStateResidencyTicks::UNDEFINED   2147483750                       # Cumulative time (in ticks) in various power states (Tick)
system.mem_ctrls95.power_state.pwrStateResidencyTicks::UNDEFINED   2147483750                       # Cumulative time (in ticks) in various power states (Tick)
system.mem_ctrls96.power_state.pwrStateResidencyTicks::UNDEFINED   2147483750                       # Cumulative time (in ticks) in various power states (Tick)
system.mem_ctrls97.power_state.pwrStateResidencyTicks::UNDEFINED   2147483750                       # Cumulative time (in ticks) in various power states (Tick)
system.mem_ctrls98.power_state.pwrStateResidencyTicks::UNDEFINED   2147483750                       # Cumulative time (in ticks) in various power states (Tick)
system.mem_ctrls99.power_state.pwrStateResidencyTicks::UNDEFINED   2147483750                       # Cumulative time (in ticks) in various power states (Tick)
system.ruby.m_outstandReqHistSeqr::bucket_size            1                       (Unspecified)
system.ruby.m_outstandReqHistSeqr::max_bucket            9                       (Unspecified)
system.ruby.m_outstandReqHistSeqr::samples     41186413                       (Unspecified)
system.ruby.m_outstandReqHistSeqr::mean             1                       (Unspecified)
system.ruby.m_outstandReqHistSeqr::gmean            1                       (Unspecified)
system.ruby.m_outstandReqHistSeqr        |           0      0.00%      0.00% |    41186413    100.00%    100.00% |           0      0.00%    100.00% |           0      0.00%    100.00% |           0      0.00%    100.00% |           0      0.00%    100.00% |           0      0.00%    100.00% |           0      0.00%    100.00% |           0      0.00%    100.00% |           0      0.00%    100.00% (Unspecified)
system.ruby.m_outstandReqHistSeqr::total     41186413                       (Unspecified)
system.ruby.m_latencyHistSeqr::bucket_size            1                       (Unspecified)
system.ruby.m_latencyHistSeqr::max_bucket            9                       (Unspecified)
system.ruby.m_latencyHistSeqr::samples       41186408                       (Unspecified)
system.ruby.m_latencyHistSeqr::mean                 1                       (Unspecified)
system.ruby.m_latencyHistSeqr::gmean                1                       (Unspecified)
system.ruby.m_latencyHistSeqr            |           0      0.00%      0.00% |    41186408    100.00%    100.00% |           0      0.00%    100.00% |           0      0.00%    100.00% |           0      0.00%    100.00% |           0      0.00%    100.00% |           0      0.00%    100.00% |           0      0.00%    100.00% |           0      0.00%    100.00% |           0      0.00%    100.00% (Unspecified)
system.ruby.m_latencyHistSeqr::total         41186408                       (Unspecified)
system.ruby.m_hitLatencyHistSeqr::bucket_size            1                       (Unspecified)
system.ruby.m_hitLatencyHistSeqr::max_bucket            9                       (Unspecified)
system.ruby.m_hitLatencyHistSeqr::samples     41186408                       (Unspecified)
system.ruby.m_hitLatencyHistSeqr::mean              1                       (Unspecified)
system.ruby.m_hitLatencyHistSeqr::gmean             1                       (Unspecified)
system.ruby.m_hitLatencyHistSeqr         |           0      0.00%      0.00% |    41186408    100.00%    100.00% |           0      0.00%    100.00% |           0      0.00%    100.00% |           0      0.00%    100.00% |           0      0.00%    100.00% |           0      0.00%    100.00% |           0      0.00%    100.00% |           0      0.00%    100.00% |           0      0.00%    100.00% (Unspecified)
system.ruby.m_hitLatencyHistSeqr::total      41186408                       (Unspecified)
system.ruby.Directory_Controller.Receive_Request |      127901      0.62%      0.62% |      128588      0.62%      1.25% |      128670      0.62%      1.87% |      128556      0.62%      2.49% |      129275      0.63%      3.12% |      128580      0.62%      3.75% |      128734      0.63%      4.37% |      128851      0.63%      5.00% |      129253      0.63%      5.62% |      128454      0.62%      6.25% |      128713      0.62%      6.87% |      128591      0.62%      7.50% |      128819      0.63%      8.12% |      128637      0.62%      8.75% |      128198      0.62%      9.37% |      128244      0.62%      9.99% |      128688      0.62%     10.62% |      128980      0.63%     11.24% |      128680      0.62%     11.87% |      128932      0.63%     12.49% |      129373      0.63%     13.12% |      129046      0.63%     13.75% |      128866      0.63%     14.38% |      128280      0.62%     15.00% |      128328      0.62%     15.62% |      129306      0.63%     16.25% |      128265      0.62%     16.87% |      129254      0.63%     17.50% |      128811      0.63%     18.13% |      129587      0.63%     18.75% |      128639      0.62%     19.38% |      128815      0.63%     20.00% |      129301      0.63%     20.63% |      128747      0.63%     21.26% |      128631      0.62%     21.88% |      128753      0.63%     22.51% |      128815      0.63%     23.13% |      128578      0.62%     23.76% |      128903      0.63%     24.38% |      128556      0.62%     25.01% |      128468      0.62%     25.63% |      128635      0.62%     26.26% |      128353      0.62%     26.88% |      129036      0.63%     27.51% |      128309      0.62%     28.13% |      128942      0.63%     28.75% |      128649      0.62%     29.38% |      128402      0.62%     30.00% |      128606      0.62%     30.63% |      128958      0.63%     31.25% |      129154      0.63%     31.88% |      128653      0.62%     32.50% |      128525      0.62%     33.13% |      128650      0.62%     33.75% |      128153      0.62%     34.38% |      128798      0.63%     35.00% |      128310      0.62%     35.62% |      128738      0.63%     36.25% |      128806      0.63%     36.87% |      128981      0.63%     37.50% |      129042      0.63%     38.13% |      127978      0.62%     38.75% |      129047      0.63%     39.38% |      128827      0.63%     40.00% |      128359      0.62%     40.62% |      128684      0.62%     41.25% |      129056      0.63%     41.88% |      128491      0.62%     42.50% |      128385      0.62%     43.12% |      128550      0.62%     43.75% |      128518      0.62%     44.37% |      128942      0.63%     45.00% |      128373      0.62%     45.62% |      128650      0.62%     46.25% |      128337      0.62%     46.87% |      129144      0.63%     47.50% |      129181      0.63%     48.12% |      128102      0.62%     48.74% |      128593      0.62%     49.37% |      128608      0.62%     49.99% |      128586      0.62%     50.62% |      128238      0.62%     51.24% |      128292      0.62%     51.86% |      128952      0.63%     52.49% |      128328      0.62%     53.11% |      129004      0.63%     53.74% |      128707      0.62%     54.36% |      129161      0.63%     54.99% |      129070      0.63%     55.62% |      128296      0.62%     56.24% |      129186      0.63%     56.87% |      129287      0.63%     57.50% |      128572      0.62%     58.12% |      129091      0.63%     58.75% |      129475      0.63%     59.38% |      128805      0.63%     60.00% |      129115      0.63%     60.63% |      128598      0.62%     61.25% |      128580      0.62%     61.88% |      128786      0.63%     62.50% |      129472      0.63%     63.13% |      128263      0.62%     63.75% |      128687      0.62%     64.38% |      128380      0.62%     65.00% |      128366      0.62%     65.62% |      128741      0.63%     66.25% |      129010      0.63%     66.88% |      128712      0.62%     67.50% |      128722      0.63%     68.13% |      128517      0.62%     68.75% |      128643      0.62%     69.37% |      128971      0.63%     70.00% |      129234      0.63%     70.63% |      128521      0.62%     71.25% |      129031      0.63%     71.88% |      128676      0.62%     72.50% |      128950      0.63%     73.13% |      128097      0.62%     73.75% |      129121      0.63%     74.38% |      128451      0.62%     75.00% |      127805      0.62%     75.62% |      128869      0.63%     76.25% |      128456      0.62%     76.87% |      129096      0.63%     77.50% |      128982      0.63%     78.13% |      128634      0.62%     78.75% |      128491      0.62%     79.37% |      128656      0.62%     80.00% |      128678      0.62%     80.62% |      128729      0.63%     81.25% |      128368      0.62%     81.87% |      128753      0.63%     82.50% |      128619      0.62%     83.12% |      129136      0.63%     83.75% |      128810      0.63%     84.37% |      128731      0.63%     85.00% |      128159      0.62%     85.62% |      128431      0.62%     86.25% |      128564      0.62%     86.87% |      129068      0.63%     87.50% |      128689      0.62%     88.12% |      128565      0.62%     88.75% |      128481      0.62%     89.37% |      128819      0.63%     89.99% |      128164      0.62%     90.62% |      128635      0.62%     91.24% |      128845      0.63%     91.87% |      128634      0.62%     92.49% |      128491      0.62%     93.12% |      128982      0.63%     93.74% |      128753      0.63%     94.37% |      128689      0.62%     94.99% |      128832      0.63%     95.62% |      128793      0.63%     96.24% |      128982      0.63%     96.87% |      129037      0.63%     97.50% |      129079      0.63%     98.12% |      128687      0.62%     98.75% |      129291      0.63%     99.37% |      128728      0.63%    100.00% (Unspecified)
system.ruby.Directory_Controller.Receive_Request::total     20595096                       (Unspecified)
system.ruby.Directory_Controller.Receive_Response |      117199      0.63%      0.63% |      117038      0.62%      1.25% |      117414      0.63%      1.88% |      116512      0.62%      2.50% |      116593      0.62%      3.12% |      116961      0.62%      3.74% |      116958      0.62%      4.37% |      117325      0.63%      4.99% |      117304      0.63%      5.62% |      117117      0.62%      6.25% |      117352      0.63%      6.87% |      117482      0.63%      7.50% |      117482      0.63%      8.12% |      117076      0.62%      8.75% |      116910      0.62%      9.37% |      116618      0.62%     10.00% |      116587      0.62%     10.62% |      116567      0.62%     11.24% |      116841      0.62%     11.86% |      116335      0.62%     12.48% |      116861      0.62%     13.11% |      117747      0.63%     13.74% |      116989      0.62%     14.36% |      117200      0.63%     14.99% |      117092      0.62%     15.61% |      116661      0.62%     16.23% |      117363      0.63%     16.86% |      117142      0.63%     17.48% |      116579      0.62%     18.11% |      117043      0.62%     18.73% |      117121      0.62%     19.36% |      116964      0.62%     19.98% |      116778      0.62%     20.60% |      117644      0.63%     21.23% |      117554      0.63%     21.86% |      116863      0.62%     22.48% |      117306      0.63%     23.11% |      117365      0.63%     23.73% |      116733      0.62%     24.36% |      117246      0.63%     24.98% |      117408      0.63%     25.61% |      117260      0.63%     26.23% |      117021      0.62%     26.86% |      116908      0.62%     27.48% |      117273      0.63%     28.11% |      117322      0.63%     28.73% |      116632      0.62%     29.36% |      117469      0.63%     29.98% |      117392      0.63%     30.61% |      116505      0.62%     31.23% |      117371      0.63%     31.86% |      116997      0.62%     32.48% |      116781      0.62%     33.10% |      117887      0.63%     33.73% |      117380      0.63%     34.36% |      117227      0.63%     34.99% |      116674      0.62%     35.61% |      116842      0.62%     36.23% |      117546      0.63%     36.86% |      117498      0.63%     37.49% |      117033      0.62%     38.11% |      117246      0.63%     38.74% |      117208      0.63%     39.36% |      117576      0.63%     39.99% |      116808      0.62%     40.61% |      117167      0.63%     41.24% |      117764      0.63%     41.86% |      116506      0.62%     42.49% |      116979      0.62%     43.11% |      116911      0.62%     43.73% |      116927      0.62%     44.36% |      117074      0.62%     44.98% |      116802      0.62%     45.61% |      116207      0.62%     46.23% |      117268      0.63%     46.85% |      117310      0.63%     47.48% |      116966      0.62%     48.10% |      117256      0.63%     48.73% |      117184      0.63%     49.35% |      117163      0.63%     49.98% |      117433      0.63%     50.60% |      117824      0.63%     51.23% |      116642      0.62%     51.86% |      116987      0.62%     52.48% |      117135      0.63%     53.10% |      117119      0.62%     53.73% |      117407      0.63%     54.36% |      117498      0.63%     54.98% |      117006      0.62%     55.61% |      117106      0.62%     56.23% |      116419      0.62%     56.85% |      116931      0.62%     57.48% |      117141      0.63%     58.10% |      117640      0.63%     58.73% |      117198      0.63%     59.36% |      116962      0.62%     59.98% |      117058      0.62%     60.60% |      117400      0.63%     61.23% |      117314      0.63%     61.86% |      117594      0.63%     62.48% |      117688      0.63%     63.11% |      117556      0.63%     63.74% |      117406      0.63%     64.37% |      116989      0.62%     64.99% |      116814      0.62%     65.61% |      117812      0.63%     66.24% |      117014      0.62%     66.87% |      116940      0.62%     67.49% |      116811      0.62%     68.11% |      116687      0.62%     68.74% |      117139      0.63%     69.36% |      117110      0.62%     69.99% |      118020      0.63%     70.62% |      117778      0.63%     71.24% |      117514      0.63%     71.87% |      117448      0.63%     72.50% |      117524      0.63%     73.12% |      117197      0.63%     73.75% |      117135      0.63%     74.38% |      116781      0.62%     75.00% |      117483      0.63%     75.63% |      117153      0.63%     76.25% |      116659      0.62%     76.87% |      117305      0.63%     77.50% |      116969      0.62%     78.12% |      116942      0.62%     78.75% |      117004      0.62%     79.37% |      117301      0.63%     80.00% |      116929      0.62%     80.62% |      116763      0.62%     81.24% |      117445      0.63%     81.87% |      117103      0.62%     82.50% |      116780      0.62%     83.12% |      117150      0.63%     83.74% |      116998      0.62%     84.37% |      117269      0.63%     84.99% |      117670      0.63%     85.62% |      117012      0.62%     86.25% |      117112      0.62%     86.87% |      117642      0.63%     87.50% |      117111      0.62%     88.12% |      116680      0.62%     88.75% |      117582      0.63%     89.37% |      117516      0.63%     90.00% |      117179      0.63%     90.63% |      117625      0.63%     91.25% |      116940      0.62%     91.88% |      117429      0.63%     92.50% |      116418      0.62%     93.12% |      117248      0.63%     93.75% |      116816      0.62%     94.37% |      116925      0.62%     95.00% |      116964      0.62%     95.62% |      117091      0.62%     96.25% |      117313      0.63%     96.87% |      117264      0.63%     97.50% |      116978      0.62%     98.12% |      116990      0.62%     98.75% |      117972      0.63%     99.38% |      116986      0.62%    100.00% (Unspecified)
system.ruby.Directory_Controller.Receive_Response::total     18741563                       (Unspecified)
system.ruby.Directory_Controller.I.Receive_Request |      127901      0.62%      0.62% |      128588      0.62%      1.25% |      128670      0.62%      1.87% |      128556      0.62%      2.49% |      129275      0.63%      3.12% |      128580      0.62%      3.75% |      128734      0.63%      4.37% |      128851      0.63%      5.00% |      129253      0.63%      5.62% |      128454      0.62%      6.25% |      128713      0.62%      6.87% |      128591      0.62%      7.50% |      128819      0.63%      8.12% |      128637      0.62%      8.75% |      128198      0.62%      9.37% |      128244      0.62%      9.99% |      128688      0.62%     10.62% |      128980      0.63%     11.24% |      128680      0.62%     11.87% |      128932      0.63%     12.49% |      129373      0.63%     13.12% |      129046      0.63%     13.75% |      128866      0.63%     14.38% |      128280      0.62%     15.00% |      128328      0.62%     15.62% |      129306      0.63%     16.25% |      128265      0.62%     16.87% |      129254      0.63%     17.50% |      128811      0.63%     18.13% |      129587      0.63%     18.75% |      128639      0.62%     19.38% |      128815      0.63%     20.00% |      129301      0.63%     20.63% |      128747      0.63%     21.26% |      128631      0.62%     21.88% |      128753      0.63%     22.51% |      128815      0.63%     23.13% |      128578      0.62%     23.76% |      128903      0.63%     24.38% |      128556      0.62%     25.01% |      128468      0.62%     25.63% |      128635      0.62%     26.26% |      128353      0.62%     26.88% |      129036      0.63%     27.51% |      128309      0.62%     28.13% |      128942      0.63%     28.75% |      128649      0.62%     29.38% |      128402      0.62%     30.00% |      128606      0.62%     30.63% |      128958      0.63%     31.25% |      129154      0.63%     31.88% |      128653      0.62%     32.50% |      128525      0.62%     33.13% |      128650      0.62%     33.75% |      128153      0.62%     34.38% |      128798      0.63%     35.00% |      128310      0.62%     35.62% |      128738      0.63%     36.25% |      128806      0.63%     36.87% |      128981      0.63%     37.50% |      129042      0.63%     38.13% |      127978      0.62%     38.75% |      129047      0.63%     39.38% |      128827      0.63%     40.00% |      128359      0.62%     40.62% |      128684      0.62%     41.25% |      129056      0.63%     41.88% |      128491      0.62%     42.50% |      128385      0.62%     43.12% |      128550      0.62%     43.75% |      128518      0.62%     44.37% |      128942      0.63%     45.00% |      128373      0.62%     45.62% |      128650      0.62%     46.25% |      128337      0.62%     46.87% |      129144      0.63%     47.50% |      129181      0.63%     48.12% |      128102      0.62%     48.74% |      128593      0.62%     49.37% |      128608      0.62%     49.99% |      128586      0.62%     50.62% |      128238      0.62%     51.24% |      128292      0.62%     51.86% |      128952      0.63%     52.49% |      128328      0.62%     53.11% |      129004      0.63%     53.74% |      128707      0.62%     54.36% |      129161      0.63%     54.99% |      129070      0.63%     55.62% |      128296      0.62%     56.24% |      129186      0.63%     56.87% |      129287      0.63%     57.50% |      128572      0.62%     58.12% |      129091      0.63%     58.75% |      129475      0.63%     59.38% |      128805      0.63%     60.00% |      129115      0.63%     60.63% |      128598      0.62%     61.25% |      128580      0.62%     61.88% |      128786      0.63%     62.50% |      129472      0.63%     63.13% |      128263      0.62%     63.75% |      128687      0.62%     64.38% |      128380      0.62%     65.00% |      128366      0.62%     65.62% |      128741      0.63%     66.25% |      129010      0.63%     66.88% |      128712      0.62%     67.50% |      128722      0.63%     68.13% |      128517      0.62%     68.75% |      128643      0.62%     69.37% |      128971      0.63%     70.00% |      129234      0.63%     70.63% |      128521      0.62%     71.25% |      129031      0.63%     71.88% |      128676      0.62%     72.50% |      128950      0.63%     73.13% |      128097      0.62%     73.75% |      129121      0.63%     74.38% |      128451      0.62%     75.00% |      127805      0.62%     75.62% |      128869      0.63%     76.25% |      128456      0.62%     76.87% |      129096      0.63%     77.50% |      128982      0.63%     78.13% |      128634      0.62%     78.75% |      128491      0.62%     79.37% |      128656      0.62%     80.00% |      128678      0.62%     80.62% |      128729      0.63%     81.25% |      128368      0.62%     81.87% |      128753      0.63%     82.50% |      128619      0.62%     83.12% |      129136      0.63%     83.75% |      128810      0.63%     84.37% |      128731      0.63%     85.00% |      128159      0.62%     85.62% |      128431      0.62%     86.25% |      128564      0.62%     86.87% |      129068      0.63%     87.50% |      128689      0.62%     88.12% |      128565      0.62%     88.75% |      128481      0.62%     89.37% |      128819      0.63%     89.99% |      128164      0.62%     90.62% |      128635      0.62%     91.24% |      128845      0.63%     91.87% |      128634      0.62%     92.49% |      128491      0.62%     93.12% |      128982      0.63%     93.74% |      128753      0.63%     94.37% |      128689      0.62%     94.99% |      128832      0.63%     95.62% |      128793      0.63%     96.24% |      128982      0.63%     96.87% |      129037      0.63%     97.50% |      129079      0.63%     98.12% |      128687      0.62%     98.75% |      129291      0.63%     99.37% |      128728      0.63%    100.00% (Unspecified)
system.ruby.Directory_Controller.I.Receive_Request::total     20595096                       (Unspecified)
system.ruby.Directory_Controller.I.Receive_Response |      117199      0.63%      0.63% |      117038      0.62%      1.25% |      117414      0.63%      1.88% |      116512      0.62%      2.50% |      116593      0.62%      3.12% |      116961      0.62%      3.74% |      116958      0.62%      4.37% |      117325      0.63%      4.99% |      117304      0.63%      5.62% |      117117      0.62%      6.25% |      117352      0.63%      6.87% |      117482      0.63%      7.50% |      117482      0.63%      8.12% |      117076      0.62%      8.75% |      116910      0.62%      9.37% |      116618      0.62%     10.00% |      116587      0.62%     10.62% |      116567      0.62%     11.24% |      116841      0.62%     11.86% |      116335      0.62%     12.48% |      116861      0.62%     13.11% |      117747      0.63%     13.74% |      116989      0.62%     14.36% |      117200      0.63%     14.99% |      117092      0.62%     15.61% |      116661      0.62%     16.23% |      117363      0.63%     16.86% |      117142      0.63%     17.48% |      116579      0.62%     18.11% |      117043      0.62%     18.73% |      117121      0.62%     19.36% |      116964      0.62%     19.98% |      116778      0.62%     20.60% |      117644      0.63%     21.23% |      117554      0.63%     21.86% |      116863      0.62%     22.48% |      117306      0.63%     23.11% |      117365      0.63%     23.73% |      116733      0.62%     24.36% |      117246      0.63%     24.98% |      117408      0.63%     25.61% |      117260      0.63%     26.23% |      117021      0.62%     26.86% |      116908      0.62%     27.48% |      117273      0.63%     28.11% |      117322      0.63%     28.73% |      116632      0.62%     29.36% |      117469      0.63%     29.98% |      117392      0.63%     30.61% |      116505      0.62%     31.23% |      117371      0.63%     31.86% |      116997      0.62%     32.48% |      116781      0.62%     33.10% |      117887      0.63%     33.73% |      117380      0.63%     34.36% |      117227      0.63%     34.99% |      116674      0.62%     35.61% |      116842      0.62%     36.23% |      117546      0.63%     36.86% |      117498      0.63%     37.49% |      117033      0.62%     38.11% |      117246      0.63%     38.74% |      117208      0.63%     39.36% |      117576      0.63%     39.99% |      116808      0.62%     40.61% |      117167      0.63%     41.24% |      117764      0.63%     41.86% |      116506      0.62%     42.49% |      116979      0.62%     43.11% |      116911      0.62%     43.73% |      116927      0.62%     44.36% |      117074      0.62%     44.98% |      116802      0.62%     45.61% |      116207      0.62%     46.23% |      117268      0.63%     46.85% |      117310      0.63%     47.48% |      116966      0.62%     48.10% |      117256      0.63%     48.73% |      117184      0.63%     49.35% |      117163      0.63%     49.98% |      117433      0.63%     50.60% |      117824      0.63%     51.23% |      116642      0.62%     51.86% |      116987      0.62%     52.48% |      117135      0.63%     53.10% |      117119      0.62%     53.73% |      117407      0.63%     54.36% |      117498      0.63%     54.98% |      117006      0.62%     55.61% |      117106      0.62%     56.23% |      116419      0.62%     56.85% |      116931      0.62%     57.48% |      117141      0.63%     58.10% |      117640      0.63%     58.73% |      117198      0.63%     59.36% |      116962      0.62%     59.98% |      117058      0.62%     60.60% |      117400      0.63%     61.23% |      117314      0.63%     61.86% |      117594      0.63%     62.48% |      117688      0.63%     63.11% |      117556      0.63%     63.74% |      117406      0.63%     64.37% |      116989      0.62%     64.99% |      116814      0.62%     65.61% |      117812      0.63%     66.24% |      117014      0.62%     66.87% |      116940      0.62%     67.49% |      116811      0.62%     68.11% |      116687      0.62%     68.74% |      117139      0.63%     69.36% |      117110      0.62%     69.99% |      118020      0.63%     70.62% |      117778      0.63%     71.24% |      117514      0.63%     71.87% |      117448      0.63%     72.50% |      117524      0.63%     73.12% |      117197      0.63%     73.75% |      117135      0.63%     74.38% |      116781      0.62%     75.00% |      117483      0.63%     75.63% |      117153      0.63%     76.25% |      116659      0.62%     76.87% |      117305      0.63%     77.50% |      116969      0.62%     78.12% |      116942      0.62%     78.75% |      117004      0.62%     79.37% |      117301      0.63%     80.00% |      116929      0.62%     80.62% |      116763      0.62%     81.24% |      117445      0.63%     81.87% |      117103      0.62%     82.50% |      116780      0.62%     83.12% |      117150      0.63%     83.74% |      116998      0.62%     84.37% |      117269      0.63%     84.99% |      117670      0.63%     85.62% |      117012      0.62%     86.25% |      117112      0.62%     86.87% |      117642      0.63%     87.50% |      117111      0.62%     88.12% |      116680      0.62%     88.75% |      117582      0.63%     89.37% |      117516      0.63%     90.00% |      117179      0.63%     90.63% |      117625      0.63%     91.25% |      116940      0.62%     91.88% |      117429      0.63%     92.50% |      116418      0.62%     93.12% |      117248      0.63%     93.75% |      116816      0.62%     94.37% |      116925      0.62%     95.00% |      116964      0.62%     95.62% |      117091      0.62%     96.25% |      117313      0.63%     96.87% |      117264      0.63%     97.50% |      116978      0.62%     98.12% |      116990      0.62%     98.75% |      117972      0.63%     99.38% |      116986      0.62%    100.00% (Unspecified)
system.ruby.Directory_Controller.I.Receive_Response::total     18741563                       (Unspecified)
system.ruby.L1Cache_Controller.Request   |      514306      2.50%      2.50% |      514816      2.50%      5.00% |      515535      2.50%      7.50% |      515878      2.50%     10.00% |      514407      2.50%     12.50% |      514646      2.50%     15.00% |      514618      2.50%     17.50% |      515071      2.50%     20.00% |      514926      2.50%     22.50% |      515490      2.50%     25.00% |      514494      2.50%     27.50% |      515028      2.50%     30.00% |      514641      2.50%     32.50% |      515086      2.50%     35.00% |      514024      2.50%     37.50% |      515760      2.50%     40.00% |      513924      2.50%     42.50% |      515831      2.50%     45.00% |      515795      2.50%     47.51% |      514561      2.50%     50.01% |      514960      2.50%     52.51% |      514567      2.50%     55.01% |      514219      2.50%     57.50% |      515558      2.50%     60.01% |      515122      2.50%     62.51% |      515019      2.50%     65.01% |      514387      2.50%     67.50% |      513665      2.49%     70.00% |      513968      2.50%     72.49% |      515945      2.51%     75.00% |      514479      2.50%     77.50% |      516499      2.51%     80.01% |      513918      2.50%     82.50% |      514115      2.50%     85.00% |      515029      2.50%     87.50% |      515600      2.50%     90.00% |      514671      2.50%     92.50% |      516140      2.51%     95.01% |      513738      2.49%     97.50% |      514712      2.50%    100.00% (Unspecified)
system.ruby.L1Cache_Controller.Request::total     20595148                       (Unspecified)
system.ruby.L1Cache_Controller.Response  |      514798      2.50%      2.50% |      515399      2.50%      5.00% |      513570      2.49%      7.50% |      514660      2.50%     10.00% |      515310      2.50%     12.50% |      516002      2.51%     15.01% |      514918      2.50%     17.51% |      514314      2.50%     20.00% |      516161      2.51%     22.51% |      514417      2.50%     25.01% |      514733      2.50%     27.51% |      513384      2.49%     30.00% |      515417      2.50%     32.50% |      513307      2.49%     35.00% |      515129      2.50%     37.50% |      514810      2.50%     40.00% |      515336      2.50%     42.50% |      513942      2.50%     45.00% |      515650      2.50%     47.50% |      513988      2.50%     50.00% |      514599      2.50%     52.50% |      514007      2.50%     54.99% |      514262      2.50%     57.49% |      514952      2.50%     59.99% |      515799      2.50%     62.50% |      516005      2.51%     65.00% |      513677      2.49%     67.50% |      515010      2.50%     70.00% |      514437      2.50%     72.50% |      515498      2.50%     75.00% |      514578      2.50%     77.50% |      514252      2.50%     80.00% |      515505      2.50%     82.50% |      514540      2.50%     85.00% |      516351      2.51%     87.51% |      515170      2.50%     90.01% |      513825      2.50%     92.50% |      513055      2.49%     95.00% |      515152      2.50%     97.50% |      515341      2.50%    100.00% (Unspecified)
system.ruby.L1Cache_Controller.Response::total     20591260                       (Unspecified)
system.ruby.L1Cache_Controller.I.Request |      514306      2.50%      2.50% |      514816      2.50%      5.00% |      515535      2.50%      7.50% |      515878      2.50%     10.00% |      514407      2.50%     12.50% |      514646      2.50%     15.00% |      514618      2.50%     17.50% |      515071      2.50%     20.00% |      514926      2.50%     22.50% |      515490      2.50%     25.00% |      514494      2.50%     27.50% |      515028      2.50%     30.00% |      514641      2.50%     32.50% |      515086      2.50%     35.00% |      514024      2.50%     37.50% |      515760      2.50%     40.00% |      513924      2.50%     42.50% |      515831      2.50%     45.00% |      515795      2.50%     47.51% |      514561      2.50%     50.01% |      514960      2.50%     52.51% |      514567      2.50%     55.01% |      514219      2.50%     57.50% |      515558      2.50%     60.01% |      515122      2.50%     62.51% |      515019      2.50%     65.01% |      514387      2.50%     67.50% |      513665      2.49%     70.00% |      513968      2.50%     72.49% |      515945      2.51%     75.00% |      514479      2.50%     77.50% |      516499      2.51%     80.01% |      513918      2.50%     82.50% |      514115      2.50%     85.00% |      515029      2.50%     87.50% |      515600      2.50%     90.00% |      514671      2.50%     92.50% |      516140      2.51%     95.01% |      513738      2.49%     97.50% |      514712      2.50%    100.00% (Unspecified)
system.ruby.L1Cache_Controller.I.Request::total     20595148                       (Unspecified)
system.ruby.L1Cache_Controller.I.Response |      514798      2.50%      2.50% |      515399      2.50%      5.00% |      513570      2.49%      7.50% |      514660      2.50%     10.00% |      515310      2.50%     12.50% |      516002      2.51%     15.01% |      514918      2.50%     17.51% |      514314      2.50%     20.00% |      516161      2.51%     22.51% |      514417      2.50%     25.01% |      514733      2.50%     27.51% |      513384      2.49%     30.00% |      515417      2.50%     32.50% |      513307      2.49%     35.00% |      515129      2.50%     37.50% |      514810      2.50%     40.00% |      515336      2.50%     42.50% |      513942      2.50%     45.00% |      515650      2.50%     47.50% |      513988      2.50%     50.00% |      514599      2.50%     52.50% |      514007      2.50%     54.99% |      514262      2.50%     57.49% |      514952      2.50%     59.99% |      515799      2.50%     62.50% |      516005      2.51%     65.00% |      513677      2.49%     67.50% |      515010      2.50%     70.00% |      514437      2.50%     72.50% |      515498      2.50%     75.00% |      514578      2.50%     77.50% |      514252      2.50%     80.00% |      515505      2.50%     82.50% |      514540      2.50%     85.00% |      516351      2.51%     87.51% |      515170      2.50%     90.01% |      513825      2.50%     92.50% |      513055      2.49%     95.00% |      515152      2.50%     97.50% |      515341      2.50%    100.00% (Unspecified)
system.ruby.L1Cache_Controller.I.Response::total     20591260                       (Unspecified)
system.ruby.RequestType.LD.latency_hist_seqr::bucket_size            1                       (Unspecified)
system.ruby.RequestType.LD.latency_hist_seqr::max_bucket            9                       (Unspecified)
system.ruby.RequestType.LD.latency_hist_seqr::samples     20595148                       (Unspecified)
system.ruby.RequestType.LD.latency_hist_seqr::mean            1                       (Unspecified)
system.ruby.RequestType.LD.latency_hist_seqr::gmean            1                       (Unspecified)
system.ruby.RequestType.LD.latency_hist_seqr |           0      0.00%      0.00% |    20595148    100.00%    100.00% |           0      0.00%    100.00% |           0      0.00%    100.00% |           0      0.00%    100.00% |           0      0.00%    100.00% |           0      0.00%    100.00% |           0      0.00%    100.00% |           0      0.00%    100.00% |           0      0.00%    100.00% (Unspecified)
system.ruby.RequestType.LD.latency_hist_seqr::total     20595148                       (Unspecified)
system.ruby.RequestType.LD.hit_latency_hist_seqr::bucket_size            1                       (Unspecified)
system.ruby.RequestType.LD.hit_latency_hist_seqr::max_bucket            9                       (Unspecified)
system.ruby.RequestType.LD.hit_latency_hist_seqr::samples     20595148                       (Unspecified)
system.ruby.RequestType.LD.hit_latency_hist_seqr::mean            1                       (Unspecified)
system.ruby.RequestType.LD.hit_latency_hist_seqr::gmean            1                       (Unspecified)
system.ruby.RequestType.LD.hit_latency_hist_seqr |           0      0.00%      0.00% |    20595148    100.00%    100.00% |           0      0.00%    100.00% |           0      0.00%    100.00% |           0      0.00%    100.00% |           0      0.00%    100.00% |           0      0.00%    100.00% |           0      0.00%    100.00% |           0      0.00%    100.00% |           0      0.00%    100.00% (Unspecified)
system.ruby.RequestType.LD.hit_latency_hist_seqr::total     20595148                       (Unspecified)
system.ruby.RequestType.ST.latency_hist_seqr::bucket_size            1                       (Unspecified)
system.ruby.RequestType.ST.latency_hist_seqr::max_bucket            9                       (Unspecified)
system.ruby.RequestType.ST.latency_hist_seqr::samples     20591260                       (Unspecified)
system.ruby.RequestType.ST.latency_hist_seqr::mean            1                       (Unspecified)
system.ruby.RequestType.ST.latency_hist_seqr::gmean            1                       (Unspecified)
system.ruby.RequestType.ST.latency_hist_seqr |           0      0.00%      0.00% |    20591260    100.00%    100.00% |           0      0.00%    100.00% |           0      0.00%    100.00% |           0      0.00%    100.00% |           0      0.00%    100.00% |           0      0.00%    100.00% |           0      0.00%    100.00% |           0      0.00%    100.00% |           0      0.00%    100.00% (Unspecified)
system.ruby.RequestType.ST.latency_hist_seqr::total     20591260                       (Unspecified)
system.ruby.RequestType.ST.hit_latency_hist_seqr::bucket_size            1                       (Unspecified)
system.ruby.RequestType.ST.hit_latency_hist_seqr::max_bucket            9                       (Unspecified)
system.ruby.RequestType.ST.hit_latency_hist_seqr::samples     20591260                       (Unspecified)
system.ruby.RequestType.ST.hit_latency_hist_seqr::mean            1                       (Unspecified)
system.ruby.RequestType.ST.hit_latency_hist_seqr::gmean            1                       (Unspecified)
system.ruby.RequestType.ST.hit_latency_hist_seqr |           0      0.00%      0.00% |    20591260    100.00%    100.00% |           0      0.00%    100.00% |           0      0.00%    100.00% |           0      0.00%    100.00% |           0      0.00%    100.00% |           0      0.00%    100.00% |           0      0.00%    100.00% |           0      0.00%    100.00% |           0      0.00%    100.00% (Unspecified)
system.ruby.RequestType.ST.hit_latency_hist_seqr::total     20591260                       (Unspecified)
system.ruby.clk_domain.clock                      250                       # Clock period in ticks (Tick)
system.ruby.dir_cntrl0.power_state.pwrStateResidencyTicks::UNDEFINED   2147483750                       # Cumulative time (in ticks) in various power states (Tick)
system.ruby.dir_cntrl0.requestToDir.m_msg_count       127901                       # Number of messages passed the buffer (Count)
system.ruby.dir_cntrl0.requestToDir.m_buf_msgs     0.014890                       # Average number of messages in buffer ((Count/Tick))
system.ruby.dir_cntrl0.responseToDir.m_msg_count       117199                       # Number of messages passed the buffer (Count)
system.ruby.dir_cntrl0.responseToDir.m_buf_msgs     0.013644                       # Average number of messages in buffer ((Count/Tick))
system.ruby.dir_cntrl1.power_state.pwrStateResidencyTicks::UNDEFINED   2147483750                       # Cumulative time (in ticks) in various power states (Tick)
system.ruby.dir_cntrl1.requestToDir.m_msg_count       128588                       # Number of messages passed the buffer (Count)
system.ruby.dir_cntrl1.requestToDir.m_buf_msgs     0.014970                       # Average number of messages in buffer ((Count/Tick))
system.ruby.dir_cntrl1.responseToDir.m_msg_count       117038                       # Number of messages passed the buffer (Count)
system.ruby.dir_cntrl1.responseToDir.m_buf_msgs     0.013625                       # Average number of messages in buffer ((Count/Tick))
system.ruby.dir_cntrl10.power_state.pwrStateResidencyTicks::UNDEFINED   2147483750                       # Cumulative time (in ticks) in various power states (Tick)
system.ruby.dir_cntrl10.requestToDir.m_msg_count       128713                       # Number of messages passed the buffer (Count)
system.ruby.dir_cntrl10.requestToDir.m_buf_msgs     0.014984                       # Average number of messages in buffer ((Count/Tick))
system.ruby.dir_cntrl10.responseToDir.m_msg_count       117352                       # Number of messages passed the buffer (Count)
system.ruby.dir_cntrl10.responseToDir.m_buf_msgs     0.013662                       # Average number of messages in buffer ((Count/Tick))
system.ruby.dir_cntrl100.power_state.pwrStateResidencyTicks::UNDEFINED   2147483750                       # Cumulative time (in ticks) in various power states (Tick)
system.ruby.dir_cntrl100.requestToDir.m_msg_count       129472                       # Number of messages passed the buffer (Count)
system.ruby.dir_cntrl100.requestToDir.m_buf_msgs     0.015073                       # Average number of messages in buffer ((Count/Tick))
system.ruby.dir_cntrl100.responseToDir.m_msg_count       117688                       # Number of messages passed the buffer (Count)
system.ruby.dir_cntrl100.responseToDir.m_buf_msgs     0.013701                       # Average number of messages in buffer ((Count/Tick))
system.ruby.dir_cntrl101.power_state.pwrStateResidencyTicks::UNDEFINED   2147483750                       # Cumulative time (in ticks) in various power states (Tick)
system.ruby.dir_cntrl101.requestToDir.m_msg_count       128263                       # Number of messages passed the buffer (Count)
system.ruby.dir_cntrl101.requestToDir.m_buf_msgs     0.014932                       # Average number of messages in buffer ((Count/Tick))
system.ruby.dir_cntrl101.responseToDir.m_msg_count       117556                       # Number of messages passed the buffer (Count)
system.ruby.dir_cntrl101.responseToDir.m_buf_msgs     0.013685                       # Average number of messages in buffer ((Count/Tick))
system.ruby.dir_cntrl102.power_state.pwrStateResidencyTicks::UNDEFINED   2147483750                       # Cumulative time (in ticks) in various power states (Tick)
system.ruby.dir_cntrl102.requestToDir.m_msg_count       128687                       # Number of messages passed the buffer (Count)
system.ruby.dir_cntrl102.requestToDir.m_buf_msgs     0.014981                       # Average number of messages in buffer ((Count/Tick))
system.ruby.dir_cntrl102.responseToDir.m_msg_count       117406                       # Number of messages passed the buffer (Count)
system.ruby.dir_cntrl102.responseToDir.m_buf_msgs     0.013668                       # Average number of messages in buffer ((Count/Tick))
system.ruby.dir_cntrl103.power_state.pwrStateResidencyTicks::UNDEFINED   2147483750                       # Cumulative time (in ticks) in various power states (Tick)
system.ruby.dir_cntrl103.requestToDir.m_msg_count       128380                       # Number of messages passed the buffer (Count)
system.ruby.dir_cntrl103.requestToDir.m_buf_msgs     0.014945                       # Average number of messages in buffer ((Count/Tick))
system.ruby.dir_cntrl103.responseToDir.m_msg_count       116989                       # Number of messages passed the buffer (Count)
system.ruby.dir_cntrl103.responseToDir.m_buf_msgs     0.013619                       # Average number of messages in buffer ((Count/Tick))
system.ruby.dir_cntrl104.power_state.pwrStateResidencyTicks::UNDEFINED   2147483750                       # Cumulative time (in ticks) in various power states (Tick)
system.ruby.dir_cntrl104.requestToDir.m_msg_count       128366                       # Number of messages passed the buffer (Count)
system.ruby.dir_cntrl104.requestToDir.m_buf_msgs     0.014944                       # Average number of messages in buffer ((Count/Tick))
system.ruby.dir_cntrl104.responseToDir.m_msg_count       116814                       # Number of messages passed the buffer (Count)
system.ruby.dir_cntrl104.responseToDir.m_buf_msgs     0.013599                       # Average number of messages in buffer ((Count/Tick))
system.ruby.dir_cntrl105.power_state.pwrStateResidencyTicks::UNDEFINED   2147483750                       # Cumulative time (in ticks) in various power states (Tick)
system.ruby.dir_cntrl105.requestToDir.m_msg_count       128741                       # Number of messages passed the buffer (Count)
system.ruby.dir_cntrl105.requestToDir.m_buf_msgs     0.014987                       # Average number of messages in buffer ((Count/Tick))
system.ruby.dir_cntrl105.responseToDir.m_msg_count       117812                       # Number of messages passed the buffer (Count)
system.ruby.dir_cntrl105.responseToDir.m_buf_msgs     0.013715                       # Average number of messages in buffer ((Count/Tick))
system.ruby.dir_cntrl106.power_state.pwrStateResidencyTicks::UNDEFINED   2147483750                       # Cumulative time (in ticks) in various power states (Tick)
system.ruby.dir_cntrl106.requestToDir.m_msg_count       129010                       # Number of messages passed the buffer (Count)
system.ruby.dir_cntrl106.requestToDir.m_buf_msgs     0.015019                       # Average number of messages in buffer ((Count/Tick))
system.ruby.dir_cntrl106.responseToDir.m_msg_count       117014                       # Number of messages passed the buffer (Count)
system.ruby.dir_cntrl106.responseToDir.m_buf_msgs     0.013622                       # Average number of messages in buffer ((Count/Tick))
system.ruby.dir_cntrl107.power_state.pwrStateResidencyTicks::UNDEFINED   2147483750                       # Cumulative time (in ticks) in various power states (Tick)
system.ruby.dir_cntrl107.requestToDir.m_msg_count       128712                       # Number of messages passed the buffer (Count)
system.ruby.dir_cntrl107.requestToDir.m_buf_msgs     0.014984                       # Average number of messages in buffer ((Count/Tick))
system.ruby.dir_cntrl107.responseToDir.m_msg_count       116940                       # Number of messages passed the buffer (Count)
system.ruby.dir_cntrl107.responseToDir.m_buf_msgs     0.013614                       # Average number of messages in buffer ((Count/Tick))
system.ruby.dir_cntrl108.power_state.pwrStateResidencyTicks::UNDEFINED   2147483750                       # Cumulative time (in ticks) in various power states (Tick)
system.ruby.dir_cntrl108.requestToDir.m_msg_count       128722                       # Number of messages passed the buffer (Count)
system.ruby.dir_cntrl108.requestToDir.m_buf_msgs     0.014985                       # Average number of messages in buffer ((Count/Tick))
system.ruby.dir_cntrl108.responseToDir.m_msg_count       116811                       # Number of messages passed the buffer (Count)
system.ruby.dir_cntrl108.responseToDir.m_buf_msgs     0.013599                       # Average number of messages in buffer ((Count/Tick))
system.ruby.dir_cntrl109.power_state.pwrStateResidencyTicks::UNDEFINED   2147483750                       # Cumulative time (in ticks) in various power states (Tick)
system.ruby.dir_cntrl109.requestToDir.m_msg_count       128517                       # Number of messages passed the buffer (Count)
system.ruby.dir_cntrl109.requestToDir.m_buf_msgs     0.014961                       # Average number of messages in buffer ((Count/Tick))
system.ruby.dir_cntrl109.responseToDir.m_msg_count       116687                       # Number of messages passed the buffer (Count)
system.ruby.dir_cntrl109.responseToDir.m_buf_msgs     0.013584                       # Average number of messages in buffer ((Count/Tick))
system.ruby.dir_cntrl11.power_state.pwrStateResidencyTicks::UNDEFINED   2147483750                       # Cumulative time (in ticks) in various power states (Tick)
system.ruby.dir_cntrl11.requestToDir.m_msg_count       128591                       # Number of messages passed the buffer (Count)
system.ruby.dir_cntrl11.requestToDir.m_buf_msgs     0.014970                       # Average number of messages in buffer ((Count/Tick))
system.ruby.dir_cntrl11.responseToDir.m_msg_count       117482                       # Number of messages passed the buffer (Count)
[...]
system.ruby.network.sankey.vcvn13.vcvn5             0                       (Unspecified)
system.ruby.network.sankey.vcvn13.vcvn6             0                       (Unspecified)
system.ruby.network.sankey.vcvn13.vcvn7             0                       (Unspecified)
system.ruby.network.sankey.vcvn13.vcvn8             0                       (Unspecified)
system.ruby.network.sankey.vcvn13.vcvn9             0                       (Unspecified)
system.ruby.network.sankey.vcvn14.vcvn0             0                       (Unspecified)
system.ruby.network.sankey.vcvn14.vcvn1             0                       (Unspecified)
system.ruby.network.sankey.vcvn14.vcvn10            0                       (Unspecified)
system.ruby.network.sankey.vcvn14.vcvn11            0                       (Unspecified)
system.ruby.network.sankey.vcvn14.vcvn12     11977617                       (Unspecified)
system.ruby.network.sankey.vcvn14.vcvn13      2969134                       (Unspecified)
system.ruby.network.sankey.vcvn14.vcvn14       430720                       (Unspecified)
system.ruby.network.sankey.vcvn14.vcvn15        40455                       (Unspecified)
system.ruby.network.sankey.vcvn14.vcvn16       889960                       (Unspecified)
system.ruby.network.sankey.vcvn14.vcvn17      1322454                       (Unspecified)
system.ruby.network.sankey.vcvn14.vcvn2             0                       (Unspecified)
system.ruby.network.sankey.vcvn14.vcvn3             0                       (Unspecified)
system.ruby.network.sankey.vcvn14.vcvn4             0                       (Unspecified)
system.ruby.network.sankey.vcvn14.vcvn5             0                       (Unspecified)
system.ruby.network.sankey.vcvn14.vcvn6             0                       (Unspecified)
system.ruby.network.sankey.vcvn14.vcvn7             0                       (Unspecified)
system.ruby.network.sankey.vcvn14.vcvn8             0                       (Unspecified)
system.ruby.network.sankey.vcvn14.vcvn9             0                       (Unspecified)
system.ruby.network.sankey.vcvn15.vcvn0             0                       (Unspecified)
system.ruby.network.sankey.vcvn15.vcvn1             0                       (Unspecified)
system.ruby.network.sankey.vcvn15.vcvn10            0                       (Unspecified)
system.ruby.network.sankey.vcvn15.vcvn11            0                       (Unspecified)
system.ruby.network.sankey.vcvn15.vcvn12      9897229                       (Unspecified)
system.ruby.network.sankey.vcvn15.vcvn13      2455359                       (Unspecified)
system.ruby.network.sankey.vcvn15.vcvn14       355427                       (Unspecified)
system.ruby.network.sankey.vcvn15.vcvn15        33235                       (Unspecified)
system.ruby.network.sankey.vcvn15.vcvn16       827355                       (Unspecified)
system.ruby.network.sankey.vcvn15.vcvn17      1115846                       (Unspecified)
system.ruby.network.sankey.vcvn15.vcvn2             0                       (Unspecified)
system.ruby.network.sankey.vcvn15.vcvn3             0                       (Unspecified)
system.ruby.network.sankey.vcvn15.vcvn4             0                       (Unspecified)
system.ruby.network.sankey.vcvn15.vcvn5             0                       (Unspecified)
system.ruby.network.sankey.vcvn15.vcvn6             0                       (Unspecified)
system.ruby.network.sankey.vcvn15.vcvn7             0                       (Unspecified)
system.ruby.network.sankey.vcvn15.vcvn8             0                       (Unspecified)
system.ruby.network.sankey.vcvn15.vcvn9             0                       (Unspecified)
system.ruby.network.sankey.vcvn16.vcvn0             0                       (Unspecified)
system.ruby.network.sankey.vcvn16.vcvn1             0                       (Unspecified)
system.ruby.network.sankey.vcvn16.vcvn10            0                       (Unspecified)
system.ruby.network.sankey.vcvn16.vcvn11            0                       (Unspecified)
system.ruby.network.sankey.vcvn16.vcvn12            0                       (Unspecified)
system.ruby.network.sankey.vcvn16.vcvn13            0                       (Unspecified)
system.ruby.network.sankey.vcvn16.vcvn14            0                       (Unspecified)
system.ruby.network.sankey.vcvn16.vcvn15            0                       (Unspecified)
system.ruby.network.sankey.vcvn16.vcvn16      8090600                       (Unspecified)
system.ruby.network.sankey.vcvn16.vcvn17            0                       (Unspecified)
system.ruby.network.sankey.vcvn16.vcvn2             0                       (Unspecified)
system.ruby.network.sankey.vcvn16.vcvn3             0                       (Unspecified)
system.ruby.network.sankey.vcvn16.vcvn4             0                       (Unspecified)
system.ruby.network.sankey.vcvn16.vcvn5             0                       (Unspecified)
system.ruby.network.sankey.vcvn16.vcvn6             0                       (Unspecified)
system.ruby.network.sankey.vcvn16.vcvn7             0                       (Unspecified)
system.ruby.network.sankey.vcvn16.vcvn8             0                       (Unspecified)
system.ruby.network.sankey.vcvn16.vcvn9             0                       (Unspecified)
system.ruby.network.sankey.vcvn17.vcvn0             0                       (Unspecified)
system.ruby.network.sankey.vcvn17.vcvn1             0                       (Unspecified)
system.ruby.network.sankey.vcvn17.vcvn10            0                       (Unspecified)
system.ruby.network.sankey.vcvn17.vcvn11            0                       (Unspecified)
system.ruby.network.sankey.vcvn17.vcvn12            0                       (Unspecified)
system.ruby.network.sankey.vcvn17.vcvn13            0                       (Unspecified)
system.ruby.network.sankey.vcvn17.vcvn14            0                       (Unspecified)
system.ruby.network.sankey.vcvn17.vcvn15            0                       (Unspecified)
system.ruby.network.sankey.vcvn17.vcvn16            0                       (Unspecified)
system.ruby.network.sankey.vcvn17.vcvn17      1439283                       (Unspecified)
system.ruby.network.sankey.vcvn17.vcvn2             0                       (Unspecified)
system.ruby.network.sankey.vcvn17.vcvn3             0                       (Unspecified)
system.ruby.network.sankey.vcvn17.vcvn4             0                       (Unspecified)
system.ruby.network.sankey.vcvn17.vcvn5             0                       (Unspecified)
system.ruby.network.sankey.vcvn17.vcvn6             0                       (Unspecified)
system.ruby.network.sankey.vcvn17.vcvn7             0                       (Unspecified)
system.ruby.network.sankey.vcvn17.vcvn8             0                       (Unspecified)
system.ruby.network.sankey.vcvn17.vcvn9             0                       (Unspecified)
system.ruby.network.sankey.vcvn2.vcvn0        3687658                       (Unspecified)
system.ruby.network.sankey.vcvn2.vcvn1         267790                       (Unspecified)
system.ruby.network.sankey.vcvn2.vcvn10             0                       (Unspecified)
system.ruby.network.sankey.vcvn2.vcvn11             0                       (Unspecified)
system.ruby.network.sankey.vcvn2.vcvn12             0                       (Unspecified)
system.ruby.network.sankey.vcvn2.vcvn13             0                       (Unspecified)
system.ruby.network.sankey.vcvn2.vcvn14             0                       (Unspecified)
system.ruby.network.sankey.vcvn2.vcvn15             0                       (Unspecified)
system.ruby.network.sankey.vcvn2.vcvn16             0                       (Unspecified)
system.ruby.network.sankey.vcvn2.vcvn17             0                       (Unspecified)
system.ruby.network.sankey.vcvn2.vcvn2           9751                       (Unspecified)
system.ruby.network.sankey.vcvn2.vcvn3            231                       (Unspecified)
system.ruby.network.sankey.vcvn2.vcvn4           1811                       (Unspecified)
system.ruby.network.sankey.vcvn2.vcvn5           8680                       (Unspecified)
system.ruby.network.sankey.vcvn2.vcvn6              0                       (Unspecified)
system.ruby.network.sankey.vcvn2.vcvn7              0                       (Unspecified)
system.ruby.network.sankey.vcvn2.vcvn8              0                       (Unspecified)
system.ruby.network.sankey.vcvn2.vcvn9              0                       (Unspecified)
system.ruby.network.sankey.vcvn3.vcvn0        3686794                       (Unspecified)
system.ruby.network.sankey.vcvn3.vcvn1         267808                       (Unspecified)
system.ruby.network.sankey.vcvn3.vcvn10             0                       (Unspecified)
system.ruby.network.sankey.vcvn3.vcvn11             0                       (Unspecified)
system.ruby.network.sankey.vcvn3.vcvn12             0                       (Unspecified)
system.ruby.network.sankey.vcvn3.vcvn13             0                       (Unspecified)
system.ruby.network.sankey.vcvn3.vcvn14             0                       (Unspecified)
system.ruby.network.sankey.vcvn3.vcvn15             0                       (Unspecified)
system.ruby.network.sankey.vcvn3.vcvn16             0                       (Unspecified)
system.ruby.network.sankey.vcvn3.vcvn17             0                       (Unspecified)
system.ruby.network.sankey.vcvn3.vcvn2           9768                       (Unspecified)
system.ruby.network.sankey.vcvn3.vcvn3            244                       (Unspecified)
system.ruby.network.sankey.vcvn3.vcvn4           1865                       (Unspecified)
system.ruby.network.sankey.vcvn3.vcvn5           9287                       (Unspecified)
system.ruby.network.sankey.vcvn3.vcvn6              0                       (Unspecified)
system.ruby.network.sankey.vcvn3.vcvn7              0                       (Unspecified)
system.ruby.network.sankey.vcvn3.vcvn8              0                       (Unspecified)
system.ruby.network.sankey.vcvn3.vcvn9              0                       (Unspecified)
system.ruby.network.sankey.vcvn4.vcvn0              0                       (Unspecified)
system.ruby.network.sankey.vcvn4.vcvn1              0                       (Unspecified)
system.ruby.network.sankey.vcvn4.vcvn10             0                       (Unspecified)
system.ruby.network.sankey.vcvn4.vcvn11             0                       (Unspecified)
system.ruby.network.sankey.vcvn4.vcvn12             0                       (Unspecified)
system.ruby.network.sankey.vcvn4.vcvn13             0                       (Unspecified)
system.ruby.network.sankey.vcvn4.vcvn14             0                       (Unspecified)
system.ruby.network.sankey.vcvn4.vcvn15             0                       (Unspecified)
system.ruby.network.sankey.vcvn4.vcvn16             0                       (Unspecified)
system.ruby.network.sankey.vcvn4.vcvn17             0                       (Unspecified)
system.ruby.network.sankey.vcvn4.vcvn2              0                       (Unspecified)
system.ruby.network.sankey.vcvn4.vcvn3              0                       (Unspecified)
system.ruby.network.sankey.vcvn4.vcvn4         788390                       (Unspecified)
system.ruby.network.sankey.vcvn4.vcvn5              0                       (Unspecified)
system.ruby.network.sankey.vcvn4.vcvn6              0                       (Unspecified)
system.ruby.network.sankey.vcvn4.vcvn7              0                       (Unspecified)
system.ruby.network.sankey.vcvn4.vcvn8              0                       (Unspecified)
system.ruby.network.sankey.vcvn4.vcvn9              0                       (Unspecified)
system.ruby.network.sankey.vcvn5.vcvn0              0                       (Unspecified)
system.ruby.network.sankey.vcvn5.vcvn1              0                       (Unspecified)
system.ruby.network.sankey.vcvn5.vcvn10             0                       (Unspecified)
system.ruby.network.sankey.vcvn5.vcvn11             0                       (Unspecified)
system.ruby.network.sankey.vcvn5.vcvn12             0                       (Unspecified)
system.ruby.network.sankey.vcvn5.vcvn13             0                       (Unspecified)
system.ruby.network.sankey.vcvn5.vcvn14             0                       (Unspecified)
system.ruby.network.sankey.vcvn5.vcvn15             0                       (Unspecified)
system.ruby.network.sankey.vcvn5.vcvn16             0                       (Unspecified)
system.ruby.network.sankey.vcvn5.vcvn17             0                       (Unspecified)
system.ruby.network.sankey.vcvn5.vcvn2              0                       (Unspecified)
system.ruby.network.sankey.vcvn5.vcvn3              0                       (Unspecified)
system.ruby.network.sankey.vcvn5.vcvn4              0                       (Unspecified)
system.ruby.network.sankey.vcvn5.vcvn5        3902975                       (Unspecified)
system.ruby.network.sankey.vcvn5.vcvn6              0                       (Unspecified)
system.ruby.network.sankey.vcvn5.vcvn7              0                       (Unspecified)
system.ruby.network.sankey.vcvn5.vcvn8              0                       (Unspecified)
system.ruby.network.sankey.vcvn5.vcvn9              0                       (Unspecified)
system.ruby.network.sankey.vcvn6.vcvn0              0                       (Unspecified)
system.ruby.network.sankey.vcvn6.vcvn1              0                       (Unspecified)
system.ruby.network.sankey.vcvn6.vcvn10             0                       (Unspecified)
system.ruby.network.sankey.vcvn6.vcvn11             0                       (Unspecified)
system.ruby.network.sankey.vcvn6.vcvn12             0                       (Unspecified)
system.ruby.network.sankey.vcvn6.vcvn13             0                       (Unspecified)
system.ruby.network.sankey.vcvn6.vcvn14             0                       (Unspecified)
system.ruby.network.sankey.vcvn6.vcvn15             0                       (Unspecified)
system.ruby.network.sankey.vcvn6.vcvn16             0                       (Unspecified)
system.ruby.network.sankey.vcvn6.vcvn17             0                       (Unspecified)
system.ruby.network.sankey.vcvn6.vcvn2              0                       (Unspecified)
system.ruby.network.sankey.vcvn6.vcvn3              0                       (Unspecified)
system.ruby.network.sankey.vcvn6.vcvn4              0                       (Unspecified)
system.ruby.network.sankey.vcvn6.vcvn5              0                       (Unspecified)
system.ruby.network.sankey.vcvn6.vcvn6              0                       (Unspecified)
system.ruby.network.sankey.vcvn6.vcvn7              0                       (Unspecified)
system.ruby.network.sankey.vcvn6.vcvn8              0                       (Unspecified)
system.ruby.network.sankey.vcvn6.vcvn9              0                       (Unspecified)
system.ruby.network.sankey.vcvn7.vcvn0              0                       (Unspecified)
system.ruby.network.sankey.vcvn7.vcvn1              0                       (Unspecified)
system.ruby.network.sankey.vcvn7.vcvn10             0                       (Unspecified)
system.ruby.network.sankey.vcvn7.vcvn11             0                       (Unspecified)
system.ruby.network.sankey.vcvn7.vcvn12             0                       (Unspecified)
system.ruby.network.sankey.vcvn7.vcvn13             0                       (Unspecified)
system.ruby.network.sankey.vcvn7.vcvn14             0                       (Unspecified)
system.ruby.network.sankey.vcvn7.vcvn15             0                       (Unspecified)
system.ruby.network.sankey.vcvn7.vcvn16             0                       (Unspecified)
system.ruby.network.sankey.vcvn7.vcvn17             0                       (Unspecified)
system.ruby.network.sankey.vcvn7.vcvn2              0                       (Unspecified)
system.ruby.network.sankey.vcvn7.vcvn3              0                       (Unspecified)
system.ruby.network.sankey.vcvn7.vcvn4              0                       (Unspecified)
system.ruby.network.sankey.vcvn7.vcvn5              0                       (Unspecified)
system.ruby.network.sankey.vcvn7.vcvn6              0                       (Unspecified)
system.ruby.network.sankey.vcvn7.vcvn7              0                       (Unspecified)
system.ruby.network.sankey.vcvn7.vcvn8              0                       (Unspecified)
system.ruby.network.sankey.vcvn7.vcvn9              0                       (Unspecified)
system.ruby.network.sankey.vcvn8.vcvn0              0                       (Unspecified)
system.ruby.network.sankey.vcvn8.vcvn1              0                       (Unspecified)
system.ruby.network.sankey.vcvn8.vcvn10             0                       (Unspecified)
system.ruby.network.sankey.vcvn8.vcvn11             0                       (Unspecified)
system.ruby.network.sankey.vcvn8.vcvn12             0                       (Unspecified)
system.ruby.network.sankey.vcvn8.vcvn13             0                       (Unspecified)
system.ruby.network.sankey.vcvn8.vcvn14             0                       (Unspecified)
system.ruby.network.sankey.vcvn8.vcvn15             0                       (Unspecified)
system.ruby.network.sankey.vcvn8.vcvn16             0                       (Unspecified)
system.ruby.network.sankey.vcvn8.vcvn17             0                       (Unspecified)
system.ruby.network.sankey.vcvn8.vcvn2              0                       (Unspecified)
system.ruby.network.sankey.vcvn8.vcvn3              0                       (Unspecified)
system.ruby.network.sankey.vcvn8.vcvn4              0                       (Unspecified)
system.ruby.network.sankey.vcvn8.vcvn5              0                       (Unspecified)
system.ruby.network.sankey.vcvn8.vcvn6              0                       (Unspecified)
system.ruby.network.sankey.vcvn8.vcvn7              0                       (Unspecified)
system.ruby.network.sankey.vcvn8.vcvn8              0                       (Unspecified)
system.ruby.network.sankey.vcvn8.vcvn9              0                       (Unspecified)
system.ruby.network.sankey.vcvn9.vcvn0              0                       (Unspecified)
system.ruby.network.sankey.vcvn9.vcvn1              0                       (Unspecified)
system.ruby.network.sankey.vcvn9.vcvn10             0                       (Unspecified)
system.ruby.network.sankey.vcvn9.vcvn11             0                       (Unspecified)
system.ruby.network.sankey.vcvn9.vcvn12             0                       (Unspecified)
system.ruby.network.sankey.vcvn9.vcvn13             0                       (Unspecified)
system.ruby.network.sankey.vcvn9.vcvn14             0                       (Unspecified)
system.ruby.network.sankey.vcvn9.vcvn15             0                       (Unspecified)
system.ruby.network.sankey.vcvn9.vcvn16             0                       (Unspecified)
system.ruby.network.sankey.vcvn9.vcvn17             0                       (Unspecified)
system.ruby.network.sankey.vcvn9.vcvn2              0                       (Unspecified)
system.ruby.network.sankey.vcvn9.vcvn3              0                       (Unspecified)
system.ruby.network.sankey.vcvn9.vcvn4              0                       (Unspecified)
system.ruby.network.sankey.vcvn9.vcvn5              0                       (Unspecified)
system.ruby.network.sankey.vcvn9.vcvn6              0                       (Unspecified)
system.ruby.network.sankey.vcvn9.vcvn7              0                       (Unspecified)
system.ruby.network.sankey.vcvn9.vcvn8              0                       (Unspecified)
system.ruby.network.sankey.vcvn9.vcvn9              0                       (Unspecified)

---------- End Simulation Statistics   ----------
